LAMMPS (16 Mar 2018)
####################################################
# Preprocessing Li2SO4 in water
#################### SETTING UP ####################
units real
dimension 3
newton on
boundary p p p
atom_style full

#################### VARIABLES ####################
variable Temp equal 298.15    # Temperature in K
variable Pres equal 1    # Pressure in atm.

variable RandomSeed equal 18 # The random seed for velocity
variable tstep equal 2 # timestep in fs

#################### NPT ####################
variable Ninptpre equal 10000 # Pre-initialize the NPT ensemble (very small timesteps)
variable Ninpt equal 5000000  # Initialize the NPT ensemble
variable Npnpt equal 5000000  # Production in the NPT ensemble (volume)

#################### NVT ####################
variable Ninvtpre equal 10000  # Pre-initialize the NVT ensemble (very small timesteps)
variable Ninvt equal 2500000   # Initialize the NVT ensemble 2.5Mstep
variable Nrun1 equal 250000  # production in the NVT ensemble (Transport properties)
variable Nrun2 equal 1000000  # production in the NVT ensemble (Transport properties)
variable Nrun3 equal 2500000  # production in the NVT ensemble (Transport properties)
variable Nrun4 equal 5000000  # production in the NVT ensemble (Transport properties)

variable Nf equal 100000      # Nfreq (fix ave/time and thermo)
variable Ne equal  1          # Nevery (fix ave/time)
variable Nr equal 100000/1
variable Nd equal 100000
variable NBR equal 5000000/100

variable nb equal 10          # Number of blocks (fix ordern)
variable nbe equal 20         # Number of block elements (fix ordern)
variable Nvisc equal 5        # Nevery for viscosity (fix ordern: sample data at (Nvisc*2))
variable Ncond equal 5        # Nevery for Tconductivity (fix ordern: sample data at (Ncond*2))
variable Ndiff equal 1000     # Nevery for diffusivity (fix ordern: sample data at (Ndiff))
variable Nwrit equal 100000   # Nwrite for transport properties (fix ordern: write every (Nwrit))

variable Nrdfe equal 1000     # Nevery for RDF (fix ave/time)
variable Nrdfw equal 1000     # Nwrite for RDF (compute rdf/ext: write every (Nrdfw*Nrdfe))
variable binnum equal 2000    # Number of bins for RDF

#################### ATOM DEFINITION and FORCEFIELD ####################
read_data ./data.lmp                     # read the positions
  orthogonal box = (0 0 0) to (25.8482 25.8482 25.8482)
  reading atoms ...
  1572 atoms
  scanning bonds ...
  scanning angles ...
  reading bonds ...
  1000 bonds
  reading angles ...
  500 angles
include ./forcefield.data                # read the force field
#--------INTERMOLECULAR POTENTIAL -------------------#
# --------Developed for MadridT KCl + TIP4P/2005-----#

mass 1 15.9994	# Ow
mass 2 1.008	# Hw
mass 3 39.0983	# K
mass 4 35.453	# Cl

pair_style lj/cut/tip4p/long 1 2 1 1 0.1546 10.0
kspace_style pppm/tip4p 1.0e-5
pair_modify mix arithmetic tail yes # ATC and Lorentz-Berthelot combining rules

#-----------------Combinations----------------------------
# atomtype atomtype epsilon sigma

pair_coeff 1 1 0.185200 3.15890    # Ow-Ow
pair_coeff 1 2 0.000000 0.00000    # Ow-Hw
pair_coeff 1 3 0.334711 2.89540    # Ow-K
pair_coeff 1 4 0.014814 4.07631    # Ow-Cl

pair_coeff 2 2 0.000000 0.00000    # Hw-Hw
pair_coeff 2 3 0.000000 0.00000    # Hw-K
pair_coeff 2 4 0.000000 0.00000    # Hw-Cl

pair_coeff 3 3 0.474603 3.41700    # K-K
pair_coeff 3 4 0.334608 3.41700    # K-Cl

pair_coeff 4 4 0.018385 4.69906    # Cl-Cl

bond_style  harmonic
bond_coeff 1 2000 0.9572           # Ow-Hw

angle_style harmonic
angle_coeff 1 200 104.52           # H-Ow-H

#dihedral_style none
#improper_style none

set type 1 charge -1.1128          # O
  500 settings made for charge
set type 2 charge +0.5564          # OH
  1000 settings made for charge
set type 3 charge +0.7500          # K
  36 settings made for charge
set type 4 charge -0.7500          # Cl
  36 settings made for charge

#################### INITIALIZATION ####################
group wat type 1		# O water
500 atoms in group wat
group K type 3			# Potasium ion
36 atoms in group K
group Cl type 4			# Chlorine ion
36 atoms in group Cl

# neigbor lists
neighbor 2.0 bin
neigh_modify every 1 delay 0 check yes

# velocity-Verlet integrator
run_style verlet

# initializing velocities
velocity all create 298.15 18

# rate of writing thermal properties to the log file
thermo_style custom step density temp press etotal
thermo_modify flush yes
thermo 100000

#################### 2) Initialize the NPT ensemble ####################
######### Go to the correct temperature now ant initiate that ##########
fix constrain all shake 1.0e-6 1000 0 b 1 a 1
fix integrate all npt temp 298.15 298.15 10.0 iso 1 1 100.0

# Initializing the whole system with very small timesteps in the NPT ensemble
timestep 0.001
run 10000
PPPM initialization ...
  extracting TIP4P info from pair style
  G vector (1/distance) = 0.309797
  grid = 24 24 24
  stencil order = 5
  estimated absolute RMS force accuracy = 0.00375155
  estimated relative force accuracy = 1.12977e-05
  3d grid and FFT values/proc = 5415 1152
  update every 1 steps, delay 0 steps, check yes
Step Density Temp Press TotEng
0    1.1241608    437.34234    3287235.8    2311.9202
Loop time of 39.8458 on 12 procs for 10000 steps with 1572 atoms

timestep 0.01
run 10000
PPPM initialization ...
  extracting TIP4P info from pair style
  G vector (1/distance) = 0.31043
  grid = 25 25 25
  stencil order = 5
  estimated absolute RMS force accuracy = 0.00343755
  estimated relative force accuracy = 1.03521e-05
  3d grid and FFT values/proc = 6400 1875
Step Density Temp Press TotEng
10000    1.0212055    1119.0847    1450704.4    383.69193
Loop time of 41.9198 on 12 procs for 10000 steps with 1572 atoms

timestep 0.1
run 10000
PPPM initialization ...
  extracting TIP4P info from pair style
  G vector (1/distance) = 0.310569
  grid = 24 24 24
  stencil order = 5
  estimated absolute RMS force accuracy = 0.00363381
  estimated relative force accuracy = 1.09431e-05
  3d grid and FFT values/proc = 5415 1152
Step Density Temp Press TotEng
20000    1.1608356     310.9265   -26300.092   -7241.7257
Loop time of 42.4214 on 12 procs for 10000 steps with 1572 atoms

timestep 0.2
run 10000
PPPM initialization ...
  extracting TIP4P info from pair style
  G vector (1/distance) = 0.310362
  grid = 24 24 24
  stencil order = 5
  estimated absolute RMS force accuracy = 0.00366502
  estimated relative force accuracy = 1.10371e-05
  3d grid and FFT values/proc = 5415 1152
Step Density Temp Press TotEng
30000    1.1508786    308.37222    -1306.504   -8247.3269
Loop time of 42.8204 on 12 procs for 10000 steps with 1572 atoms

timestep 0.5
run 10000
PPPM initialization ...
  extracting TIP4P info from pair style
  G vector (1/distance) = 0.310481
  grid = 24 24 24
  stencil order = 5
  estimated absolute RMS force accuracy = 0.00364707
  estimated relative force accuracy = 1.09831e-05
  3d grid and FFT values/proc = 5415 1152
Step Density Temp Press TotEng
40000    1.1565826    291.97796   -2046.1851   -8415.5128
Loop time of 43.9723 on 12 procs for 10000 steps with 1572 atoms

reset_timestep 0

# continuing the initialization with the final value of timestep
unfix integrate
fix integrate all npt temp 298.15 298.15 100.0 iso 1 1 1000.0

timestep 2

run 5000000
PPPM initialization ...
  extracting TIP4P info from pair style
  G vector (1/distance) = 0.31063
  grid = 24 24 24
  stencil order = 5
  estimated absolute RMS force accuracy = 0.00362472
  estimated relative force accuracy = 1.09157e-05
  3d grid and FFT values/proc = 5415 1152
Step Density Temp Press TotEng
0    1.1637662    288.92944   -274.99478   -8352.2385
Averages over the last 26 of 51 rows, steps 2500000 to 5000000:
Density Temp Press TotEng
1.15092 299.629 -147.032 -8387.14
Loop time of 22939.1 on 12 procs for 5000000 steps with 1572 atoms

reset_timestep 0

#################### 3) Obtaining average volume in NPT ######################
# Creating restart files
restart 100000 1.restart 2.restart

# Getting the average volume of the system
variable Volume equal vol
fix VoluAve all ave/time 1 5000000 5000000 v_Volume file volume.dat

variable Dens equal density
fix DensAve all ave/time 1 50000 50000 v_Dens file density.dat

compute T1 all temp
fix TempAve1 all ave/time 1 50000 50000 c_T1 file temperatureNPT.dat

compute P1 all pressure T1
fix PressAve1 all ave/time 1 50000 50000 c_P1 file pressureNPT.dat

run 5000000
PPPM initialization ...
  extracting TIP4P info from pair style
  G vector (1/distance) = 0.310204
  grid = 24 24 24
  stencil order = 5
  estimated absolute RMS force accuracy = 0.00368913
  estimated relative force accuracy = 1.11097e-05
  3d grid and FFT values/proc = 5415 1152
Step Density Temp Press TotEng
0    1.1433076    312.83883    225.67743   -8265.0041
Averages over the last 26 of 51 rows, steps 2500000 to 5000000:
Density Temp Press TotEng
1.1544 296.547 -152.63 -8404.73
Loop time of 23090.3 on 12 procs for 5000000 steps with 1572 atoms

#################### 4) Initializing the NVT ensemble ####################
# scaling the size of the system to the average volume
variable sidesize equal (f_VoluAve^(1.0/3.0))    # get the volume
variable xlow equal xlo
variable ylow equal ylo
variable zlow equal zlo
variable xhig equal (xlo+25.6344355025396)
variable yhig equal (ylo+25.6344355025396)
variable zhig equal (zlo+25.6344355025396)
change_box all x final 0.0761326308380177 25.7105681333776 y final 0.0761326308380177 25.7105681333776 z final 0.0761326308380177 25.7105681333776
  orthogonal box = (0.0761326 0.0761326 0.0761326) to (25.7106 25.7721 25.7721)
  orthogonal box = (0.0761326 0.0761326 0.0761326) to (25.7106 25.7106 25.7721)
  orthogonal box = (0.0761326 0.0761326 0.0761326) to (25.7106 25.7106 25.7106)
unfix DensAve
unfix VoluAve
unfix TempAve1
unfix PressAve1

# changing the ensemble to NVT
unfix integrate
fix integrate all nvt temp 298.15 298.15 10.0

timestep 0.001
run 10000
PPPM initialization ...
  extracting TIP4P info from pair style
  G vector (1/distance) = 0.310397
  grid = 24 24 24
  stencil order = 5
  estimated absolute RMS force accuracy = 0.00365983
  estimated relative force accuracy = 1.10215e-05
  3d grid and FFT values/proc = 5415 1152
Step Density Temp Press TotEng
5000000    1.1525234    294.12486    186773.61   -8320.2189
Loop time of 29.4736 on 12 procs for 10000 steps with 1572 atoms

timestep 0.01
run 10000
PPPM initialization ...
  extracting TIP4P info from pair style
  G vector (1/distance) = 0.310397
  grid = 24 24 24
  stencil order = 5
  estimated absolute RMS force accuracy = 0.00365983
  estimated relative force accuracy = 1.10215e-05
  3d grid and FFT values/proc = 5415 1152
Step Density Temp Press TotEng
5010000    1.1525234    307.82281    767.15043   -8376.3079
Loop time of 29.9072 on 12 procs for 10000 steps with 1572 atoms

timestep 0.1
run 10000
PPPM initialization ...
  extracting TIP4P info from pair style
  G vector (1/distance) = 0.310397
  grid = 24 24 24
  stencil order = 5
  estimated absolute RMS force accuracy = 0.00365983
  estimated relative force accuracy = 1.10215e-05
  3d grid and FFT values/proc = 5415 1152
Step Density Temp Press TotEng
5020000    1.1525234    305.09787    375.90298   -8399.9588
Loop time of 30.2254 on 12 procs for 10000 steps with 1572 atoms

timestep 0.2
run 10000
PPPM initialization ...
  extracting TIP4P info from pair style
  G vector (1/distance) = 0.310397
  grid = 24 24 24
  stencil order = 5
  estimated absolute RMS force accuracy = 0.00365983
  estimated relative force accuracy = 1.10215e-05
  3d grid and FFT values/proc = 5415 1152
Step Density Temp Press TotEng
5030000    1.1525234    291.96038    15.208546   -8441.9932
Loop time of 30.5312 on 12 procs for 10000 steps with 1572 atoms

timestep 0.5
run 10000
PPPM initialization ...
  extracting TIP4P info from pair style
  G vector (1/distance) = 0.310397
  grid = 24 24 24
  stencil order = 5
  estimated absolute RMS force accuracy = 0.00365983
  estimated relative force accuracy = 1.10215e-05
  3d grid and FFT values/proc = 5415 1152
Step Density Temp Press TotEng
5040000    1.1525234    299.27608    21.131305   -8382.4118
Loop time of 30.876 on 12 procs for 10000 steps with 1572 atoms

unfix integrate
fix integrate all nvt temp 298.15 298.15 100.0
# continuing the initialization with the final value of timestep
timestep 2

run 2500000
PPPM initialization ...
  extracting TIP4P info from pair style
  G vector (1/distance) = 0.310397
  grid = 24 24 24
  stencil order = 5
  estimated absolute RMS force accuracy = 0.00365983
  estimated relative force accuracy = 1.10215e-05
  3d grid and FFT values/proc = 5415 1152
Step Density Temp Press TotEng
5050000    1.1525234    291.92043   -585.33186   -8425.2553
Averages over the last 14 of 27 rows, steps 6300000 to 7550000:
Density Temp Press TotEng
1.15252 297.945 161.307 -8404.59
Loop time of 8267.7 on 12 procs for 2500000 steps with 1572 atoms

reset_timestep 0

#################### 2) Production in NVT ensemble #####################
# computing average total energy, pontential energy, temperature, and pressure over time
variable TotEn equal etotal
fix TEAve all ave/time 1 100000 100000 v_TotEn file TotalE.dat

variable PotEn equal pe
fix PEAve all ave/time 1 100000 100000 v_PotEn file PotenE.dat

compute T all temp
fix TempAve all ave/time 1 100000 100000 c_T file temperature.dat

compute P all pressure T
fix PressAve all ave/time 1 100000 100000 c_P file pressure.dat

# computing self-diffusion and Onsager coefficients using the OCTP plugin
compute positions all position
fix f1 all ordern diffusivity 1000 100000 c_positions nb 10 nbe 20

# computing shear and bulk viscosities  using the OCTP plugin
fix f2 all ordern viscosity 5 100000 c_P nb 10 nbe 20

# computing thermal conductivity using the OCTP plugin
compute KE all ke/atom
compute PE all pe/atom
compute ST all stress/atom NULL virial
compute heatflux all heat/flux KE PE ST
fix f3 all ordern thermalconductivity 5 100000 c_heatflux nb 10 nbe 20

# computing the RDF for all group pairs
compute rdfs all rdf/ext Nbin 2000 Nwrite 1000
fix f4 all ave/time 1 1 1000 c_rdfs

dump trjectory all xyz 100000 movie.xyz
dump_modify trjectory element Ow H K Cl

run 250000
PPPM initialization ...
  extracting TIP4P info from pair style
  G vector (1/distance) = 0.310397
  grid = 24 24 24
  stencil order = 5
  estimated absolute RMS force accuracy = 0.00365983
  estimated relative force accuracy = 1.10215e-05
  3d grid and FFT values/proc = 5415 1152
Step Density Temp Press TotEng
0    1.1525234    301.01835   -61.973354   -8437.7585
Loop time of 1283.76 on 12 procs for 250000 steps with 1572 atoms

shell bash copy_files.sh dt_2 00.25Mstep

run 250000
PPPM initialization ...
  extracting TIP4P info from pair style
  G vector (1/distance) = 0.310397
  grid = 24 24 24
  stencil order = 5
  estimated absolute RMS force accuracy = 0.00365983
  estimated relative force accuracy = 1.10215e-05
  3d grid and FFT values/proc = 5415 1152
Step Density Temp Press TotEng
250000    1.1525234    303.03629   -734.27608   -8334.1126
Loop time of 1272.86 on 12 procs for 250000 steps with 1572 atoms

shell bash copy_files.sh dt_2 00.50Mstep

run 250000
PPPM initialization ...
  extracting TIP4P info from pair style
  G vector (1/distance) = 0.310397
  grid = 24 24 24
  stencil order = 5
  estimated absolute RMS force accuracy = 0.00365983
  estimated relative force accuracy = 1.10215e-05
  3d grid and FFT values/proc = 5415 1152
Step Density Temp Press TotEng
500000    1.1525234    299.40422     414.3796    -8447.438
Loop time of 1273.83 on 12 procs for 250000 steps with 1572 atoms

shell bash copy_files.sh dt_2 00.75Mstep

run 250000
PPPM initialization ...
  extracting TIP4P info from pair style
  G vector (1/distance) = 0.310397
  grid = 24 24 24
  stencil order = 5
  estimated absolute RMS force accuracy = 0.00365983
  estimated relative force accuracy = 1.10215e-05
  3d grid and FFT values/proc = 5415 1152
Step Density Temp Press TotEng
750000    1.1525234    287.39004    256.97132    -8508.577
Loop time of 1272.65 on 12 procs for 250000 steps with 1572 atoms

shell bash copy_files.sh dt_2 01.00Mstep

run 250000
PPPM initialization ...
  extracting TIP4P info from pair style
  G vector (1/distance) = 0.310397
  grid = 24 24 24
  stencil order = 5
  estimated absolute RMS force accuracy = 0.00365983
  estimated relative force accuracy = 1.10215e-05
  3d grid and FFT values/proc = 5415 1152
Step Density Temp Press TotEng
1000000    1.1525234    304.32009    20.084541   -8393.2553
Loop time of 1277.25 on 12 procs for 250000 steps with 1572 atoms

shell bash copy_files.sh dt_2 01.25Mstep

run 250000
PPPM initialization ...
  extracting TIP4P info from pair style
  G vector (1/distance) = 0.310397
  grid = 24 24 24
  stencil order = 5
  estimated absolute RMS force accuracy = 0.00365983
  estimated relative force accuracy = 1.10215e-05
  3d grid and FFT values/proc = 5415 1152
Step Density Temp Press TotEng
1250000    1.1525234    298.87568   -483.36817   -8431.4012
Loop time of 1285.64 on 12 procs for 250000 steps with 1572 atoms

shell bash copy_files.sh dt_2 01.50Mstep

run 250000
PPPM initialization ...
  extracting TIP4P info from pair style
  G vector (1/distance) = 0.310397
  grid = 24 24 24
  stencil order = 5
  estimated absolute RMS force accuracy = 0.00365983
  estimated relative force accuracy = 1.10215e-05
  3d grid and FFT values/proc = 5415 1152
Step Density Temp Press TotEng
1500000    1.1525234    292.72843    54.232083   -8372.7555
Loop time of 1285.8 on 12 procs for 250000 steps with 1572 atoms

shell bash copy_files.sh dt_2 01.75Mstep

run 250000
PPPM initialization ...
  extracting TIP4P info from pair style
  G vector (1/distance) = 0.310397
  grid = 24 24 24
  stencil order = 5
  estimated absolute RMS force accuracy = 0.00365983
  estimated relative force accuracy = 1.10215e-05
  3d grid and FFT values/proc = 5415 1152
Step Density Temp Press TotEng
1750000    1.1525234    302.44369   -1084.3228   -8412.9424
Loop time of 1276.42 on 12 procs for 250000 steps with 1572 atoms

shell bash copy_files.sh dt_2 02.00step

run 1000000
PPPM initialization ...
  extracting TIP4P info from pair style
  G vector (1/distance) = 0.310397
  grid = 24 24 24
  stencil order = 5
  estimated absolute RMS force accuracy = 0.00365983
  estimated relative force accuracy = 1.10215e-05
  3d grid and FFT values/proc = 5415 1152
Step Density Temp Press TotEng
2000000    1.1525234     304.6078   -239.30474   -8374.7406
Averages over the last 6 of 11 rows, steps 2500000 to 3000000:
Density Temp Press TotEng
1.15252 296.323 265.953 -8417.89
Loop time of 5112.96 on 12 procs for 1000000 steps with 1572 atoms

shell bash copy_files.sh dt_2 03.00Mstep

run 1000000
PPPM initialization ...
  extracting TIP4P info from pair style
  G vector (1/distance) = 0.310397
  grid = 24 24 24
  stencil order = 5
  estimated absolute RMS force accuracy = 0.00365983
  estimated relative force accuracy = 1.10215e-05
  3d grid and FFT values/proc = 5415 1152
Step Density Temp Press TotEng
3000000    1.1525234    303.51869   -485.78008   -8465.8192
Averages over the last 6 of 11 rows, steps 3500000 to 4000000:
Density Temp Press TotEng
1.15252 302.905 46.1809 -8363.12
Loop time of 5109.21 on 12 procs for 1000000 steps with 1572 atoms

shell bash copy_files.sh dt_2 04.00Mstep

run 1000000
PPPM initialization ...
  extracting TIP4P info from pair style
  G vector (1/distance) = 0.310397
  grid = 24 24 24
  stencil order = 5
  estimated absolute RMS force accuracy = 0.00365983
  estimated relative force accuracy = 1.10215e-05
  3d grid and FFT values/proc = 5415 1152
Step Density Temp Press TotEng
4000000    1.1525234    311.39608    31.783116   -8319.6057
Averages over the last 6 of 11 rows, steps 4500000 to 5000000:
Density Temp Press TotEng
1.15252 298.814 -84.2166 -8395.41
Loop time of 5121.33 on 12 procs for 1000000 steps with 1572 atoms

shell bash copy_files.sh dt_2 05.00Mstep

run 1000000
PPPM initialization ...
  extracting TIP4P info from pair style
  G vector (1/distance) = 0.310397
  grid = 24 24 24
  stencil order = 5
  estimated absolute RMS force accuracy = 0.00365983
  estimated relative force accuracy = 1.10215e-05
  3d grid and FFT values/proc = 5415 1152
Step Density Temp Press TotEng
5000000    1.1525234    300.35959    6.5971318   -8386.9467
Averages over the last 6 of 11 rows, steps 5500000 to 6000000:
Density Temp Press TotEng
1.15252 295.762 -548.701 -8413.83
Loop time of 5097.99 on 12 procs for 1000000 steps with 1572 atoms

shell bash copy_files.sh dt_2 06.00Mstep

run 1000000
PPPM initialization ...
  extracting TIP4P info from pair style
  G vector (1/distance) = 0.310397
  grid = 24 24 24
  stencil order = 5
  estimated absolute RMS force accuracy = 0.00365983
  estimated relative force accuracy = 1.10215e-05
  3d grid and FFT values/proc = 5415 1152
Step Density Temp Press TotEng
6000000    1.1525234    296.58594   -1373.1323   -8407.0451
Averages over the last 6 of 11 rows, steps 6500000 to 7000000:
Density Temp Press TotEng
1.15252 300.386 -11.8209 -8380.61
Loop time of 5110.09 on 12 procs for 1000000 steps with 1572 atoms

shell bash copy_files.sh dt_2 07.00Mstep

run 1000000
PPPM initialization ...
  extracting TIP4P info from pair style
  G vector (1/distance) = 0.310397
  grid = 24 24 24
  stencil order = 5
  estimated absolute RMS force accuracy = 0.00365983
  estimated relative force accuracy = 1.10215e-05
  3d grid and FFT values/proc = 5415 1152
Step Density Temp Press TotEng
7000000    1.1525234    296.80564   -93.734902   -8421.0333
Averages over the last 6 of 11 rows, steps 7500000 to 8000000:
Density Temp Press TotEng
1.15252 297.559 256.169 -8391.64
Loop time of 5107.32 on 12 procs for 1000000 steps with 1572 atoms

shell bash copy_files.sh dt_2 08.00Mstep

run 1000000
PPPM initialization ...
  extracting TIP4P info from pair style
  G vector (1/distance) = 0.310397
  grid = 24 24 24
  stencil order = 5
  estimated absolute RMS force accuracy = 0.00365983
  estimated relative force accuracy = 1.10215e-05
  3d grid and FFT values/proc = 5415 1152
Step Density Temp Press TotEng
8000000    1.1525234    300.46064    267.15584    -8359.339
Averages over the last 6 of 11 rows, steps 8500000 to 9000000:
Density Temp Press TotEng
1.15252 298.837 -360.029 -8355.71
Loop time of 5116.38 on 12 procs for 1000000 steps with 1572 atoms

shell bash copy_files.sh dt_2 09.00Mstep

run 1000000
PPPM initialization ...
  extracting TIP4P info from pair style
  G vector (1/distance) = 0.310397
  grid = 24 24 24
  stencil order = 5
  estimated absolute RMS force accuracy = 0.00365983
  estimated relative force accuracy = 1.10215e-05
  3d grid and FFT values/proc = 5415 1152
Step Density Temp Press TotEng
9000000    1.1525234    296.86792   -891.32791   -8418.4693
Averages over the last 6 of 11 rows, steps 9500000 to 10000000:
Density Temp Press TotEng
1.15252 294.718 -277.658 -8382.13
Loop time of 5133.3 on 12 procs for 1000000 steps with 1572 atoms

shell bash copy_files.sh dt_2 10.00Mstep

run 2500000
PPPM initialization ...
  extracting TIP4P info from pair style
  G vector (1/distance) = 0.310397
  grid = 24 24 24
  stencil order = 5
  estimated absolute RMS force accuracy = 0.00365983
  estimated relative force accuracy = 1.10215e-05
  3d grid and FFT values/proc = 5415 1152
Step Density Temp Press TotEng
10000000    1.1525234    301.31489    71.083764   -8365.2688
Averages over the last 13 of 26 rows, steps 11300000 to 12500000:
Density Temp Press TotEng
1.15252 300.475 192.131 -8380.8
Loop time of 12748 on 12 procs for 2500000 steps with 1572 atoms

shell bash copy_files.sh dt_2 12.50Mstep

run 2500000
PPPM initialization ...
  extracting TIP4P info from pair style
  G vector (1/distance) = 0.310397
  grid = 24 24 24
  stencil order = 5
  estimated absolute RMS force accuracy = 0.00365983
  estimated relative force accuracy = 1.10215e-05
  3d grid and FFT values/proc = 5415 1152
Step Density Temp Press TotEng
12500000    1.1525234    288.98589   -154.09262   -8355.0204
Averages over the last 13 of 26 rows, steps 13800000 to 15000000:
Density Temp Press TotEng
1.15252 297.81 33.6734 -8385.37
Loop time of 12803.4 on 12 procs for 2500000 steps with 1572 atoms

shell bash copy_files.sh dt_2 15.00Mstep

run 2500000
PPPM initialization ...
  extracting TIP4P info from pair style
  G vector (1/distance) = 0.310397
  grid = 24 24 24
  stencil order = 5
  estimated absolute RMS force accuracy = 0.00365983
  estimated relative force accuracy = 1.10215e-05
  3d grid and FFT values/proc = 5415 1152
Step Density Temp Press TotEng
15000000    1.1525234    300.98506    160.35137   -8341.6841
Averages over the last 13 of 26 rows, steps 16300000 to 17500000:
Density Temp Press TotEng
1.15252 300.498 182.598 -8381.12
Loop time of 12753.4 on 12 procs for 2500000 steps with 1572 atoms

shell bash copy_files.sh dt_2 17.50Mstep

run 2500000
PPPM initialization ...
  extracting TIP4P info from pair style
  G vector (1/distance) = 0.310397
  grid = 24 24 24
  stencil order = 5
  estimated absolute RMS force accuracy = 0.00365983
  estimated relative force accuracy = 1.10215e-05
  3d grid and FFT values/proc = 5415 1152
Step Density Temp Press TotEng
17500000    1.1525234    307.37507   -29.074267   -8363.1479
Averages over the last 13 of 26 rows, steps 18800000 to 20000000:
Density Temp Press TotEng
1.15252 298.861 -94.1936 -8394.21
Loop time of 12776 on 12 procs for 2500000 steps with 1572 atoms

shell bash copy_files.sh dt_2 20.00Mstep

run 5000000
PPPM initialization ...
  extracting TIP4P info from pair style
  G vector (1/distance) = 0.310397
  grid = 24 24 24
  stencil order = 5
  estimated absolute RMS force accuracy = 0.00365983
  estimated relative force accuracy = 1.10215e-05
  3d grid and FFT values/proc = 5415 1152
Step Density Temp Press TotEng
20000000    1.1525234    298.15477   -404.56004   -8391.5436
Averages over the last 26 of 51 rows, steps 22500000 to 25000000:
Density Temp Press TotEng
1.15252 298.694 90.9636 -8402.25
Loop time of 25542 on 12 procs for 5000000 steps with 1572 atoms

shell bash copy_files.sh dt_2 25.00Mstep

run 5000000
PPPM initialization ...
  extracting TIP4P info from pair style
  G vector (1/distance) = 0.310397
  grid = 24 24 24
  stencil order = 5
  estimated absolute RMS force accuracy = 0.00365983
  estimated relative force accuracy = 1.10215e-05
  3d grid and FFT values/proc = 5415 1152
Step Density Temp Press TotEng
25000000    1.1525234    295.27149    78.805818   -8391.0822
Averages over the last 26 of 51 rows, steps 27500000 to 30000000:
Density Temp Press TotEng
1.15252 297.873 -89.1934 -8408.31
Loop time of 25672.7 on 12 procs for 5000000 steps with 1572 atoms

shell bash copy_files.sh dt_2 30.00Mstep

run 5000000
PPPM initialization ...
  extracting TIP4P info from pair style
  G vector (1/distance) = 0.310397
  grid = 24 24 24
  stencil order = 5
  estimated absolute RMS force accuracy = 0.00365983
  estimated relative force accuracy = 1.10215e-05
  3d grid and FFT values/proc = 5415 1152
Step Density Temp Press TotEng
30000000    1.1525234    311.77975   -659.43969   -8367.9803
Averages over the last 26 of 51 rows, steps 32500000 to 35000000:
Density Temp Press TotEng
1.15252 298.766 -16.3119 -8392.38
Loop time of 25692 on 12 procs for 5000000 steps with 1572 atoms

shell bash copy_files.sh dt_2 35.00Mstep

run 5000000
PPPM initialization ...
  extracting TIP4P info from pair style
  G vector (1/distance) = 0.310397
  grid = 24 24 24
  stencil order = 5
  estimated absolute RMS force accuracy = 0.00365983
  estimated relative force accuracy = 1.10215e-05
  3d grid and FFT values/proc = 5415 1152
Step Density Temp Press TotEng
35000000    1.1525234    305.06825   -592.69938   -8390.6636
Averages over the last 26 of 51 rows, steps 37500000 to 40000000:
Density Temp Press TotEng
1.15252 300.459 12.018 -8392.86
Loop time of 25699.5 on 12 procs for 5000000 steps with 1572 atoms

shell bash copy_files.sh dt_2 40.00Mstep

run 5000000
PPPM initialization ...
  extracting TIP4P info from pair style
  G vector (1/distance) = 0.310397
  grid = 24 24 24
  stencil order = 5
  estimated absolute RMS force accuracy = 0.00365983
  estimated relative force accuracy = 1.10215e-05
  3d grid and FFT values/proc = 5415 1152
Step Density Temp Press TotEng
40000000    1.1525234    298.04613   -728.56559   -8383.8719
Averages over the last 26 of 51 rows, steps 42500000 to 45000000:
Density Temp Press TotEng
1.15252 298.13 35.5576 -8386.9
Loop time of 25639.6 on 12 procs for 5000000 steps with 1572 atoms

shell bash copy_files.sh dt_2 45.00Mstep

run 5000000
PPPM initialization ...
  extracting TIP4P info from pair style
  G vector (1/distance) = 0.310397
  grid = 24 24 24
  stencil order = 5
  estimated absolute RMS force accuracy = 0.00365983
  estimated relative force accuracy = 1.10215e-05
  3d grid and FFT values/proc = 5415 1152
Step Density Temp Press TotEng
45000000    1.1525234    298.12198     862.3367   -8416.3652
Averages over the last 26 of 51 rows, steps 47500000 to 50000000:
Density Temp Press TotEng
1.15252 296.794 18.6482 -8389.22
Loop time of 25689.2 on 12 procs for 5000000 steps with 1572 atoms

shell bash copy_files.sh dt_2 50.00Mstep
quit
