LAMMPS (22 Aug 2018)
####################################################
# Transport properties of KCl in water
#  at 298 K and 1 atm.
#################### SETTING UP ####################
units real
dimension 3
newton on
boundary p p p
atom_style full

#################### VARIABLES ####################
variable Temp equal 298       # Temperature in K
variable Pres equal 1.0       # Pressure in atm.

variable RandomSeed equal 600 # The random seed for velocity
variable tstep equal 2.0      # 2fs
variable Ninptpre equal 10000 # Pre-initialize the NPT ensemble (very small timesteps)
variable Ninpt equal 5000000    # Initialize the NPT ensemble
variable Npnpt equal 5000000  # Production in the NPT ensemble (volume)
variable Ninvtpre equal 10000 # Pre-initialize the NVT ensemble (very small timesteps)
variable Ninvt equal 100000   # Initialize the NVT ensemble
variable Npnvt equal 100000   # Production in the NVT ensemble (energy)
variable Nrun equal 100000000   # production in the NVE ensemble
variable Nf equal 10000       # Nfreq (fix ave/time and thermo)
variable Ne equal  10         # Nevery (fix ave/time)
variable Nr equal 10000/10
variable NBR equal 5000000/50
variable Nd equal 100000/10

variable nb equal 10          # Number of blocks (fix ordern)
variable nbe equal 20         # Number of block elements (fix ordern)
variable Nvisc equal 5        # Nevery for viscosity (fix ordern: sample data at (Nvisc*2))
variable Ncond equal 5        # Nevery for Tconductivity (fix ordern: sample data at (Ncond*2))
variable Ndiff equal 1000     # Nevery for diffusivity (fix ordern: sample data at (Ndiff))
variable Nwrit equal 100000   # Nwrite for transport properties (fix ordern: write every (Nwrit))

variable Nrdfe equal 100      # Nevery for RDF (fix ave/time)
variable Nrdfw equal 1000     # Nwrite for RDF (compute rdf/ext: write every (Nrdfw*Nrdfe))
variable binnum equal 2000    # Number of bins for RDF

#################### ATOM DEFINITION and FORCEFIELD ####################
read_data ./data.lmp                     # read the positions
  orthogonal box = (0 0 0) to (32.8974 32.8974 32.8974)
  reading atoms ...
  3072 atoms
  scanning bonds ...
  scanning angles ...
  reading bonds ...
  2000 bonds
  reading angles ...
  1000 angles
include ./forcefield.data                  # read the force field
#--------INTERMOLECULAR POTENTIAL -------------------#
# ---------------Developed for NaCl in water (tip4p/2005) system-----

mass 1 15.9994 # Ow
mass 2 1.00794 # Hw
mass 3 39.0983 # K
mass 4 35.4527 # Cl

pair_style lj/cut/tip4p/long 1 2 1 1 0.1546 10.0

kspace_style pppm/tip4p 1.0e-5
pair_modify tail yes # ATC i

#-----------------Combinations----------------------------
# atomtype atomtype epsilon sigma

pair_coeff 1 1 0.1851 3.1589     # Ow-Ow
pair_coeff 1 2 0.0000 0.0000     # Ow-Hw
pair_coeff 1 3 0.3347 2.89540     # Ow-K
pair_coeff 1 4 0.0148 4.07631     # Ow-Cl

pair_coeff 2 2 0.0000 0.0000     # Hw-Hw
pair_coeff 2 3 0.0000 0.0000     # Hw-K
pair_coeff 2 4 0.0000 0.0000     # Hw-Cl

pair_coeff 3 3 0.4746 2.30140     # K-K
pair_coeff 3 4 0.3346 3.41700     # K-Cl

pair_coeff 4 4 0.0184 4.69906     # Cl-Cl

bond_style  harmonic
bond_coeff 1 1000 0.9572          # Ow-Hw

angle_style harmonic
angle_coeff 1 100 104.52          # H-O-H

#dihedral_style none
#improper_style none

set type 1 charge -1.1128        # O
  1000 settings made for charge
set type 2 charge +0.5564        # OH
  2000 settings made for charge
set type 3 charge +0.7500        # K
  36 settings made for charge
set type 4 charge -0.7500        # Cl
  36 settings made for charge

#################### INITIALIZATION ####################
# groups for the central atoms of water (O)
group wat type 1      # The Oxygen of WATER molecules
1000 atoms in group wat
group K type 3
36 atoms in group K
group Cl type 4
36 atoms in group Cl

# neigbor lists
neighbor 2.0 bin
neigh_modify every 1 delay 0 check yes

# velocity-Verlet integrator
run_style verlet

# minimizing the system using the conjugate gradient method
min_style cg
min_modify dmax 0.05
minimize 1.0e-6 1.0e-6 1000 10000
PPPM initialization ...
  extracting TIP4P info from pair style
  G vector (1/distance) = 0.308492
  grid = 30 30 30
  stencil order = 5
  estimated absolute RMS force accuracy = 0.00396779
  estimated relative force accuracy = 1.19489e-05
  3d grid and FFT values/proc = 2475 256
  update every 1 steps, delay 0 steps, check yes
Step Temp E_pair E_mol TotEng Press
0            0   -533.24652 3.2833764e-05   -533.24649    18749.729
Loop time of 1.4124 on 128 procs for 1000 steps with 3072 atoms

Minimization stats:
  Stopping criterion = max iterations
  Energy initial, next-to-last, final =
  Force two-norm initial, final = 1265.98 42.907
  Force max component initial, final = 165.576 8.87677
  Final line search alpha, max atom move = 0.00715157 0.0634828
  Iterations, force evaluations = 1000 1788

reset_timestep 0

# initializing velocities
velocity all create 298 600

# rate of writing thermal properties to the log file
thermo 10000

#################### 1) Initialize the NPT ensemble ####################
# applying the shake algorithm for rigid molecules and the NPT solver
fix constrain all shake 1.0e-6 1000 0 b 1 a 1
fix integrate all npt temp 298 298 10.0 iso 1 1 100.0

# Initializing the whole system with very small timesteps in the NPT ensemble
timestep 0.001
run 10000
PPPM initialization ...
  extracting TIP4P info from pair style
  G vector (1/distance) = 0.308492
  grid = 30 30 30
  stencil order = 5
  estimated absolute RMS force accuracy = 0.00396779
  estimated relative force accuracy = 1.19489e-05
  3d grid and FFT values/proc = 2475 256
Step Temp E_pair E_mol TotEng Press Volume
0    441.89184   -17665.195            0   -14937.283   -36563.205    35602.788
Loop time of 9.47535 on 128 procs for 10000 steps with 3072 atoms

timestep 0.01
run 10000
PPPM initialization ...
  extracting TIP4P info from pair style
  G vector (1/distance) = 0.308572
  grid = 30 30 30
  stencil order = 5
  estimated absolute RMS force accuracy = 0.00395474
  estimated relative force accuracy = 1.19096e-05
  3d grid and FFT values/proc = 2475 256
Step Temp E_pair E_mol TotEng Press Volume
10000    171.46627   -16049.944            0   -14991.439   -25823.777    35485.094
Loop time of 8.97943 on 128 procs for 10000 steps with 3072 atoms

timestep 0.1
run 10000
PPPM initialization ...
  extracting TIP4P info from pair style
  G vector (1/distance) = 0.308283
  grid = 30 30 30
  stencil order = 5
  estimated absolute RMS force accuracy = 0.00400203
  estimated relative force accuracy = 1.2052e-05
  3d grid and FFT values/proc = 2475 256
Step Temp E_pair E_mol TotEng Press Volume
20000    293.56406   -14856.858            0   -13044.611   -13047.447    35911.562
Loop time of 9.30745 on 128 procs for 10000 steps with 3072 atoms

timestep 0.2
run 10000
PPPM initialization ...
  extracting TIP4P info from pair style
  G vector (1/distance) = 0.310385
  grid = 30 30 30
  stencil order = 5
  estimated absolute RMS force accuracy = 0.00367014
  estimated relative force accuracy = 1.10525e-05
  3d grid and FFT values/proc = 2475 256
Step Temp E_pair E_mol TotEng Press Volume
30000    297.32744   -14820.419            0    -12984.94   -1616.4187    32916.531
Loop time of 9.69829 on 128 procs for 10000 steps with 3072 atoms

timestep 0.5
run 10000
PPPM initialization ...
  extracting TIP4P info from pair style
  G vector (1/distance) = 0.311144
  grid = 30 30 30
  stencil order = 5
  estimated absolute RMS force accuracy = 0.00355673
  estimated relative force accuracy = 1.0711e-05
  3d grid and FFT values/proc = 2475 256
Step Temp E_pair E_mol TotEng Press Volume
40000    299.73067   -14930.043            0   -13079.728    2151.2366    31892.016
Loop time of 9.9884 on 128 procs for 10000 steps with 3072 atoms

reset_timestep 0

# continuing the initialization with the final value of timestep
unfix integrate
fix integrate all npt temp 298 298 100.0 iso 1 1 1000.0

timestep 2
run 5000000
PPPM initialization ...
  extracting TIP4P info from pair style
  G vector (1/distance) = 0.311017
  grid = 30 30 30
  stencil order = 5
  estimated absolute RMS force accuracy = 0.00357544
  estimated relative force accuracy = 1.07673e-05
  3d grid and FFT values/proc = 2475 256
Step Temp E_pair E_mol TotEng Press Volume
0    298.30301   -15058.895            0   -13217.394   -654.87417    32061.074
Averages over the last 251 of 501 rows, steps 2500000 to 5000000:
Temp E_pair E_mol TotEng Press Volume
297.975 -15031.5 0 -13192 -40.0279 31823
Loop time of 5101.68 on 128 procs for 5000000 steps with 3072 atoms

reset_timestep 0

#################### 2) Obtaining average volume in NPT ######################
# Getting the average volume of the system
variable Volume equal vol
fix VoluAve all ave/time 1 5000000 5000000 v_Volume file volume.dat

# Thermo style for outputing system properties to the log file
thermo_style custom density
thermo_modify flush yes

variable Dens equal density
fix DensAve all ave/time 1 100000 100000 v_Dens file density.dat

run 5000000
PPPM initialization ...
  extracting TIP4P info from pair style
  G vector (1/distance) = 0.311289
  grid = 30 30 30
  stencil order = 5
  estimated absolute RMS force accuracy = 0.00353544
  estimated relative force accuracy = 1.06469e-05
  3d grid and FFT values/proc = 2475 256
Density
   1.0842945
   1.0754184
   1.0909711
   1.0802286
   1.0821136
   1.0829666
   1.0745063
   1.0826956
   1.0925642
   1.0807411
   1.0812794
   1.0788436
   1.0912364
   1.0691433
   1.0968626
   1.0897257
      1.0816
   1.0741766
   1.0859235
   1.0748225
   1.0820041
   1.0988801
   1.0786302
   1.0802554
   1.0682139
   1.0825619
   1.0760312
   1.0768484
   1.0892581
   1.0963791
   1.0764616
   1.0666869
   1.0721127
   1.0693488
   1.0832434
   1.0671483
   1.0716672
   1.0881044
   1.0840959
   1.0886892
   1.0679659
   1.0734983
   1.0801599
   1.0722608
   1.0807385
   1.0766272
   1.0844103
   1.1001424
   1.0815725
   1.0813538
   1.0749569
   1.0796409
   1.0796957
   1.0780022
   1.0848456
   1.0718666
   1.0812983
   1.0801022
    1.083248
   1.0906583
   1.0765075
   1.0858165
   1.0823936
   1.0726904
   1.0842204
    1.080141
   1.0789843
   1.0851297
   1.0941761
   1.0890092
   1.0764009
   1.0799885
   1.0896994
   1.0871486
   1.0769424
   1.0803937
   1.0866892
   1.0838509
   1.0578277
   1.0770051
   1.0825096
   1.1016645
   1.0950837
   1.0876608
   1.0833023
   1.0762273
   1.0934887
   1.0769637
   1.0731055
   1.0810274
   1.0973669
   1.0759736
   1.0924813
   1.0718142
   1.0611301
   1.0913194
   1.0776385
   1.0775814
   1.0828459
   1.1007311
   1.0667829
   1.0796114
   1.0886525
   1.0815342
   1.0782101
   1.0799039
   1.0826566
   1.0765375
   1.0689126
   1.0829502
   1.0701859
   1.0728346
   1.0828378
   1.0711038
   1.0912708
   1.0747937
    1.087976
   1.0765727
   1.0676974
   1.0834582
   1.0761017
   1.0816826
   1.0874908
   1.0838236
   1.0951334
   1.0882237
   1.0957821
   1.0851974
   1.0819232
    1.072657
   1.0904245
   1.0776826
   1.0955482
   1.0580048
   1.0932929
   1.0857967
   1.0895555
   1.0807253
   1.0873507
   1.0837133
   1.0778797
   1.0787448
   1.0908104
   1.0749909
   1.0826361
   1.0762608
    1.064848
   1.0693405
     1.05807
   1.0767622
   1.0887414
   1.0765965
   1.0840515
   1.0697613
   1.0746469
   1.0751767
   1.0857713
   1.0907022
   1.0714599
   1.0802061
   1.0897462
   1.0678337
   1.0779265
   1.0721401
     1.08308
   1.0769333
   1.0879636
   1.0938248
   1.0724098
   1.0943109
   1.0814988
   1.0822153
   1.0735958
   1.0919967
   1.0798648
   1.0789654
   1.0805673
   1.0764519
   1.0682216
   1.0833681
   1.0672192
   1.0856325
   1.0862645
   1.0770528
   1.0791073
   1.0861646
   1.0879105
   1.0848353
   1.0835279
   1.0798813
   1.0748614
   1.0851207
   1.0677323
   1.0801338
   1.0839191
   1.0791545
   1.0913505
   1.0873612
   1.0758986
   1.0709895
   1.0775656
   1.0811945
   1.0820451
   1.0667732
   1.0828127
   1.0769739
   1.0706948
   1.0874572
   1.0946634
   1.0809811
   1.0792641
   1.0906011
    1.075548
   1.0897995
   1.0746243
   1.0700978
    1.085259
   1.0727251
   1.0729094
   1.0776961
   1.0730353
   1.0722581
    1.084092
   1.0815311
   1.0820828
   1.0899182
   1.0843003
   1.0852798
   1.0869146
   1.0805943
   1.0673818
   1.0819862
   1.0873231
    1.083847
   1.0839105
   1.0991283
   1.0750111
   1.0860137
   1.0636052
   1.0792809
   1.0940096
   1.0832106
   1.1040863
   1.0752821
   1.0701375
    1.070289
   1.0826869
   1.0697552
   1.0902646
   1.0867804
   1.0617991
   1.0779702
    1.075023
   1.0759873
   1.0806315
   1.0783469
    1.087459
   1.0878733
   1.0878309
   1.0833767
   1.0827769
    1.090422
   1.0748572
   1.0689589
   1.0848377
   1.0912738
   1.0865833
   1.0806779
   1.0808268
    1.069474
   1.0792187
   1.0876797
    1.082475
   1.0876402
   1.0746593
   1.0799956
   1.0783388
   1.0838576
   1.0862364
   1.0838342
   1.0804138
   1.0717425
    1.070906
   1.0866313
   1.0674712
   1.0794299
   1.1001248
   1.0886554
   1.0827681
   1.0776652
   1.0839569
   1.0842462
   1.0722839
   1.0781503
   1.0658863
   1.0760104
   1.0803296
   1.0679361
   1.0595367
    1.089702
   1.0985159
   1.0738323
   1.0766988
   1.0670152
     1.07304
   1.0782179
   1.0840605
   1.0714175
   1.0820203
    1.090049
    1.077418
   1.0992328
   1.0802433
   1.0723698
   1.0790205
   1.0766304
   1.0855651
    1.076215
   1.0751994
   1.0791836
   1.0674582
   1.0890635
   1.0837823
   1.0776724
   1.0836489
     1.07584
   1.0840893
   1.0898856
   1.0814595
   1.0794692
   1.0719503
   1.0716142
   1.0797815
   1.0705119
   1.0766795
   1.0825236
   1.0849135
   1.0769358
   1.0847812
   1.0749423
    1.075641
   1.0851195
   1.0640242
   1.0828112
   1.0659092
    1.091033
    1.094062
   1.0790726
   1.0832131
   1.0793851
   1.0798104
    1.081397
   1.0701464
   1.0839172
   1.0730078
      1.0786
   1.0798546
   1.0768653
   1.0872673
   1.0747796
   1.0803617
   1.0819178
   1.0898686
   1.0715066
   1.0657004
   1.0872295
   1.0806072
   1.0807188
   1.0900639
   1.0960998
    1.082259
   1.0922624
   1.0824182
    1.084486
   1.0677376
   1.0789948
    1.080325
   1.0651051
   1.0651575
   1.0903275
   1.0680038
   1.0863636
   1.0901105
   1.0739492
   1.0774469
   1.0863177
   1.0842619
   1.0767159
   1.0984442
   1.0870299
   1.0770521
   1.0801698
   1.0837664
   1.0731213
   1.0727549
   1.0772057
   1.0744937
   1.0671257
   1.0855316
   1.0829407
    1.076198
   1.0732781
   1.0823898
   1.0787075
   1.0693114
   1.0865792
    1.085372
   1.0755952
   1.0801416
   1.0638437
   1.0722477
    1.077876
   1.0923674
   1.0882155
    1.082334
   1.0897027
   1.0808011
   1.0864702
   1.0796022
    1.078028
   1.0797128
   1.0764562
   1.0918261
   1.0947498
   1.0942444
   1.0867772
   1.0832469
   1.0742848
   1.0910352
   1.0848155
   1.0852522
    1.083974
   1.0812255
   1.0855646
   1.0825947
   1.0846914
   1.0987349
   1.0928256
   1.0699925
   1.0816314
   1.0826035
   1.0804513
   1.0675555
   1.0627013
   1.0782264
   1.0760022
    1.093927
   1.0657558
   1.0895318
   1.0771883
   1.0881683
   1.0827587
   1.0839927
   1.0762462
   1.0805077
   1.0890878
   1.0862882
   1.0880382
   1.0729333
   1.0752912
   1.0880494
   1.0794534
   1.0795442
   1.0937788
   1.0952727
   1.0839609
   1.0807524
   1.0891525
   1.0706772
   1.0838043
   1.0797182
   1.0823855
   1.0747952
    1.072694
   1.0718782
   1.0821525
   1.0871687
   1.0825485
   1.0770126
   1.0780449
    1.063075
   1.0884395
   1.0947375
    1.096408
   1.0819472
   1.0871531
   1.0859135
   1.0788555
   1.0883382
   1.0929708
   1.0835639
   1.0810214
   1.0786182
   1.0908715
   1.0699544
   1.0750464
   1.0683008
   1.0801647
   1.0746322
   1.0770185
   1.0780682
Loop time of 5183.19 on 128 procs for 5000000 steps with 3072 atoms

reset_timestep 0

#################### 3) Initializing the NVT ensemble ####################
# scaling the size of the system to the average volume
variable sidesize equal (f_VoluAve^(1.0/3.0))    # get the volume
variable xlow equal xlo
variable ylow equal ylo
variable zlow equal zlo
variable xhig equal (xlo+31.6829166120736)
variable yhig equal (ylo+31.6829166120736)
variable zhig equal (zlo+31.6829166120736)
change_box all x final 0.594105933759256 32.2770225458329 y final 0.594105933759256 32.2770225458329 z final 0.594105933759256 32.2770225458329
  orthogonal box = (0.594106 0.594106 0.594106) to (32.277 32.3033 32.3033)
  orthogonal box = (0.594106 0.594106 0.594106) to (32.277 32.277 32.3033)
  orthogonal box = (0.594106 0.594106 0.594106) to (32.277 32.277 32.277)
unfix DensAve
unfix VoluAve

# changing the ensemble to NVT
unfix integrate
fix integrate all nvt temp 298 298 100.0

# Initializing the whole system with very small timesteps in the NVT ensemble
timestep 0.001
run 10000
PPPM initialization ...
  extracting TIP4P info from pair style
  G vector (1/distance) = 0.31121
  grid = 30 30 30
  stencil order = 5
  estimated absolute RMS force accuracy = 0.00354694
  estimated relative force accuracy = 1.06815e-05
  3d grid and FFT values/proc = 2475 256
Density
   1.0807504
   1.0807504
Loop time of 7.64631 on 128 procs for 10000 steps with 3072 atoms

timestep 0.01
run 10000
PPPM initialization ...
  extracting TIP4P info from pair style
  G vector (1/distance) = 0.31121
  grid = 30 30 30
  stencil order = 5
  estimated absolute RMS force accuracy = 0.00354694
  estimated relative force accuracy = 1.06815e-05
  3d grid and FFT values/proc = 2475 256
Density
   1.0807504
   1.0807504
Loop time of 7.69251 on 128 procs for 10000 steps with 3072 atoms

timestep 0.1
run 10000
PPPM initialization ...
  extracting TIP4P info from pair style
  G vector (1/distance) = 0.31121
  grid = 30 30 30
  stencil order = 5
  estimated absolute RMS force accuracy = 0.00354694
  estimated relative force accuracy = 1.06815e-05
  3d grid and FFT values/proc = 2475 256
Density
   1.0807504
   1.0807504
Loop time of 7.81544 on 128 procs for 10000 steps with 3072 atoms

timestep 0.2
run 10000
PPPM initialization ...
  extracting TIP4P info from pair style
  G vector (1/distance) = 0.31121
  grid = 30 30 30
  stencil order = 5
  estimated absolute RMS force accuracy = 0.00354694
  estimated relative force accuracy = 1.06815e-05
  3d grid and FFT values/proc = 2475 256
Density
   1.0807504
   1.0807504
Loop time of 8.14017 on 128 procs for 10000 steps with 3072 atoms

timestep 0.5
run 10000
PPPM initialization ...
  extracting TIP4P info from pair style
  G vector (1/distance) = 0.31121
  grid = 30 30 30
  stencil order = 5
  estimated absolute RMS force accuracy = 0.00354694
  estimated relative force accuracy = 1.06815e-05
  3d grid and FFT values/proc = 2475 256
Density
   1.0807504
   1.0807504
Loop time of 7.77603 on 128 procs for 10000 steps with 3072 atoms

reset_timestep 0

# continuing the initialization with the final value of timestep
timestep 2
run 100000
PPPM initialization ...
  extracting TIP4P info from pair style
  G vector (1/distance) = 0.31121
  grid = 30 30 30
  stencil order = 5
  estimated absolute RMS force accuracy = 0.00354694
  estimated relative force accuracy = 1.06815e-05
  3d grid and FFT values/proc = 2475 256
Density
   1.0807504
   1.0807504
   1.0807504
   1.0807504
   1.0807504
   1.0807504
   1.0807504
   1.0807504
   1.0807504
   1.0807504
   1.0807504
Loop time of 82.1885 on 128 procs for 100000 steps with 3072 atoms

reset_timestep 0

#################### 4) Obtaining average total energy in NVT #####################
thermo_style custom temp pe ke etotal
thermo_modify flush yes

variable T1 equal temp
variable TE1 equal etotal
variable KE1 equal ke
variable PE1 equal pe
fix Tave1 all ave/time 100000 1 100000 v_T1
fix TEave1 all ave/time 1 100000 100000 v_TE1
fix KEave1 all ave/time 100000 1 100000 v_KE1
fix PEave1 all ave/time 100000 1 100000 v_PE1

dump trjectory all xyz 10000 movie.xyz
dump_modify trjectory element O H K Cl

run 100000
PPPM initialization ...
  extracting TIP4P info from pair style
  G vector (1/distance) = 0.31121
  grid = 30 30 30
  stencil order = 5
  estimated absolute RMS force accuracy = 0.00354694
  estimated relative force accuracy = 1.06815e-05
  3d grid and FFT values/proc = 2475 256
Temp PotEng KinEng TotEng
Loop time of 88.5042 on 128 procs for 100000 steps with 3072 atoms

reset_timestep 0

undump trjectory

#################### 3) Simulating transport properties in NVT ensmeble ######################

unfix Tave1
unfix TEave1
unfix KEave1
unfix PEave1
variable T1 delete
variable TE1 delete
variable KE1 delete
variable PE1 delete

# computing average total energy, pontential energy, temperature, and pressure over time
variable TotEn equal etotal
fix TEAve all ave/time 10 1000 10000 v_TotEn file TotalE.dat

variable PotEn equal pe
fix PEAve all ave/time 10 1000 10000 v_PotEn file PotenE.dat

compute T all temp
fix TempAve all ave/time 10 1000 10000 c_T file temperature.dat

compute P all pressure T
fix PressAve all ave/time 10 1000 10000 c_P file pressure.dat

# computing self-diffusion and Onsager coefficients using the OCTP plugin
compute positions all position
fix f3 all ordern diffusivity 1000 100000 c_positions nb 10 nbe 20 file diffself.dat diffonsag.dat

# computing shear and bulk viscosities  using the OCTP plugin
fix f1 all ordern viscosity 5 100000 c_P nb 10 nbe 20 file viscosity.dat

# computing the RDF for all group pairs
compute rdfs all rdf/ext Nbin 2000 Nwrite 1000 file rdf.dat
fix f4 all ave/time 1 1 100 c_rdfs

# Thermo style for outputing system properties to the log file
thermo_style custom step temp f_TempAve press f_PressAve pe ke etotal
thermo_modify flush yes

run 100000000
PPPM initialization ...
  extracting TIP4P info from pair style
  G vector (1/distance) = 0.31121
  grid = 30 30 30
  stencil order = 5
  estimated absolute RMS force accuracy = 0.00354694
  estimated relative force accuracy = 1.06815e-05
  3d grid and FFT values/proc = 2475 256
Step Temp f_TempAve Press f_PressAve PotEng KinEng TotEng
0    301.17562            0   -423.10092            0   -15046.885    1859.2347    -13187.65
Averages over the last 5001 of 10001 rows, steps 50000000 to 100000000:
Temp f_TempAve Press f_PressAve PotEng KinEng TotEng
298.019 298.001 0.623056 -3.21411 -15036.6 1839.75 -13196.8
Loop time of 91040.1 on 128 procs for 100000000 steps with 3072 atoms

quit
