LAMMPS (16 Mar 2018)
####################################################
# Preprocessing Li2SO4 in water
#################### SETTING UP ####################
units real
dimension 3
newton on
boundary p p p
atom_style full

#################### VARIABLES ####################
variable Temp equal 298.15    # Temperature in K
variable Pres equal 1    # Pressure in atm.

variable RandomSeed equal 62 # The random seed for velocity
variable tstep equal 2 # timestep in fs

#################### NPT ####################
variable Ninptpre equal 5000 # Pre-initialize the NPT ensemble (very small timesteps)
variable Ninpt equal 5000000  # Initialize the NPT ensemble
variable Npnpt equal 5000000  # Production in the NPT ensemble (volume)

#################### NVT ####################
variable Ninvtpre equal 5000  # Pre-initialize the NVT ensemble (very small timesteps)
variable Ninvt equal 2000000  # Initialize the NVT ensemble 2.5Mstep
variable Nrun3 equal 50000000  # production in the NVT ensemble (Transport properties)

variable Nf equal 100000      # Nfreq (fix ave/time and thermo)
variable Ne equal  1          # Nevery (fix ave/time)
variable Nr equal 100000/1
variable Nd equal 100000
variable NBR equal 5000000/100

variable nb equal 10          # Number of blocks (fix ordern)
variable nbe equal 20         # Number of block elements (fix ordern)
variable Nvisc equal 5        # Nevery for viscosity (fix ordern: sample data at (Nvisc*2))
variable Ncond equal 5        # Nevery for Tconductivity (fix ordern: sample data at (Ncond*2))
variable Ndiff equal 500     # Nevery for diffusivity (fix ordern: sample data at (Ndiff))
variable Nwrit equal 50000   # Nwrite for transport properties (fix ordern: write every (Nwrit))

variable Nrdfe equal 1000     # Nevery for RDF (fix ave/time)
variable Nrdfw equal 1000     # Nwrite for RDF (compute rdf/ext: write every (Nrdfw*Nrdfe))
variable binnum equal 2000    # Number of bins for RDF

#################### ATOM DEFINITION and FORCEFIELD ####################
read_data ./data.lmp                     # read the positions
  orthogonal box = (0 0 0) to (31.8687 31.8687 31.8687)
  reading atoms ...
  3072 atoms
  scanning bonds ...
  scanning angles ...
  reading bonds ...
  2000 bonds
  reading angles ...
  1000 angles
include ./forcefield.data                # read the force field
#--------INTERMOLECULAR POTENTIAL -------------------#
# --------Developed for MadridT KCl + TIP4P/2005-----#

mass 1 15.9994	# Ow
mass 2 1.008	# Hw
mass 3 39.0983	# K
mass 4 35.453	# Cl

pair_style lj/cut/tip4p/long 1 2 1 1 0.1546 10.0
kspace_style pppm/tip4p 1.0e-5
pair_modify mix arithmetic tail yes # ATC and Lorentz-Berthelot combining rules

#-----------------Combinations----------------------------
# atomtype atomtype epsilon sigma

pair_coeff 1 1 0.185207 3.15890    # Ow-Ow
pair_coeff 1 2 0.000000 0.00000    # Ow-Hw
pair_coeff 1 3 0.334711 2.89540    # Ow-K
pair_coeff 1 4 0.014814 4.07631    # Ow-Cl

pair_coeff 2 2 0.000000 0.00000    # Hw-Hw
pair_coeff 2 3 0.000000 0.00000    # Hw-K
pair_coeff 2 4 0.000000 0.00000    # Hw-Cl

pair_coeff 3 3 0.474603 2.30140    # K-K
pair_coeff 3 4 0.334608 3.41700    # K-Cl

pair_coeff 4 4 0.018385 4.69906    # Cl-Cl

bond_style  harmonic
bond_coeff 1 2000 0.9572           # Ow-Hw

angle_style harmonic
angle_coeff 1 200 104.52           # H-Ow-H

#dihedral_style none
#improper_style none

set type 1 charge -1.1128          # O
  1000 settings made for charge
set type 2 charge +0.5564          # OH
  2000 settings made for charge
set type 3 charge +0.7500          # K
  36 settings made for charge
set type 4 charge -0.7500          # Cl
  36 settings made for charge

#################### INITIALIZATION ####################
group wat type 1		# O water
1000 atoms in group wat
group K type 3			# Potasium ion
36 atoms in group K
group Cl type 4			# Chlorine ion
36 atoms in group Cl

# neigbor lists
neighbor 2.0 bin
neigh_modify every 1 delay 0 check yes

# velocity-Verlet integrator
run_style verlet

# initializing velocities
velocity all create 298.15 62

# rate of writing thermal properties to the log file
thermo_style custom step density temp press etotal
thermo_modify flush yes
thermo 100000

#################### 2) Initialize the NPT ensemble ####################
######### Go to the correct temperature now ant initiate that ##########
fix constrain all shake 1.0e-6 1000 0 b 1 a 1
fix integrate all npt temp 298.15 298.15 10.0 iso 1 1 100.0

# Initializing the whole system with very small timesteps in the NPT ensemble
timestep 0.001
run 5000
PPPM initialization ...
  extracting TIP4P info from pair style
  G vector (1/distance) = 0.31079
  grid = 30 30 30
  stencil order = 5
  estimated absolute RMS force accuracy = 0.00360921
  estimated relative force accuracy = 1.0869e-05
  3d grid and FFT values/proc = 2475 256
  update every 1 steps, delay 0 steps, check yes
Step Density Temp Press TotEng
0    1.0619701    442.11427   -3300446.3    7412.7268
Loop time of 4.92462 on 128 procs for 5000 steps with 3072 atoms

timestep 0.01
run 5000
PPPM initialization ...
  extracting TIP4P info from pair style
  G vector (1/distance) = 0.309714
  grid = 30 30 30
  stencil order = 5
  estimated absolute RMS force accuracy = 0.00377315
  estimated relative force accuracy = 1.13627e-05
  3d grid and FFT values/proc = 2475 256
Step Density Temp Press TotEng
5000    1.0155192    626.81322      2312081    5253.1356
Loop time of 4.49583 on 128 procs for 5000 steps with 3072 atoms

timestep 0.1
run 5000
PPPM initialization ...
  extracting TIP4P info from pair style
  G vector (1/distance) = 0.312396
  grid = 32 32 32
  stencil order = 5
  estimated absolute RMS force accuracy = 0.00306426
  estimated relative force accuracy = 9.22793e-06
  3d grid and FFT values/proc = 2475 256
Step Density Temp Press TotEng
10000   0.93631118    371.77267    -50124.66   -8064.9873
Loop time of 5.46331 on 128 procs for 5000 steps with 3072 atoms

timestep 0.2
run 5000
PPPM initialization ...
  extracting TIP4P info from pair style
  G vector (1/distance) = 0.311383
  grid = 30 30 30
  stencil order = 5
  estimated absolute RMS force accuracy = 0.00352155
  estimated relative force accuracy = 1.0605e-05
  3d grid and FFT values/proc = 2475 256
Step Density Temp Press TotEng
15000    1.0886114    299.96322   -1401.1469   -12741.022
Loop time of 5.71156 on 128 procs for 5000 steps with 3072 atoms

timestep 0.5
run 5000
PPPM initialization ...
  extracting TIP4P info from pair style
  G vector (1/distance) = 0.311218
  grid = 30 30 30
  stencil order = 5
  estimated absolute RMS force accuracy = 0.00354586
  estimated relative force accuracy = 1.06782e-05
  3d grid and FFT values/proc = 2475 256
Step Density Temp Press TotEng
20000    1.0810903    289.54443    452.73057   -13057.339
Loop time of 5.56636 on 128 procs for 5000 steps with 3072 atoms

reset_timestep 0

# continuing the initialization with the final value of timestep
unfix integrate
fix integrate all npt temp 298.15 298.15 100.0 iso 1 1 1000.0

timestep 2
run 5000000
PPPM initialization ...
  extracting TIP4P info from pair style
  G vector (1/distance) = 0.310964
  grid = 30 30 30
  stencil order = 5
  estimated absolute RMS force accuracy = 0.00358332
  estimated relative force accuracy = 1.07911e-05
  3d grid and FFT values/proc = 2475 256
Step Density Temp Press TotEng
0       1.0697    286.53386   -93.806894   -13240.462
Averages over the last 26 of 51 rows, steps 2500000 to 5000000:
Density Temp Press TotEng
1.07953 296.674 17.0271 -13190.3
Loop time of 5162.98 on 128 procs for 5000000 steps with 3072 atoms

reset_timestep 0

#################### 3) Obtaining average volume in NPT ######################
# Creating restart files
restart 100000 1.restart 2.restart

# Getting the average volume of the system
variable Volume equal vol
fix VoluAve all ave/time 1 5000000 5000000 v_Volume file volume.dat

variable Dens equal density
fix DensAve all ave/time 1 50000 50000 v_Dens file density.dat

compute T1 all temp
fix TempAve1 all ave/time 1 50000 50000 c_T1 file temperatureNPT.dat

compute P1 all pressure T1
fix PressAve1 all ave/time 1 50000 50000 c_P1 file pressureNPT.dat

run 5000000
PPPM initialization ...
  extracting TIP4P info from pair style
  G vector (1/distance) = 0.311237
  grid = 30 30 30
  stencil order = 5
  estimated absolute RMS force accuracy = 0.00354305
  estimated relative force accuracy = 1.06698e-05
  3d grid and FFT values/proc = 2475 256
Step Density Temp Press TotEng
0    1.0819541    304.51879    308.75608   -13083.145
Averages over the last 26 of 51 rows, steps 2500000 to 5000000:
Density Temp Press TotEng
1.08095 297.185 49.0288 -13207.8
Loop time of 5277.3 on 128 procs for 5000000 steps with 3072 atoms

#################### 4) Initializing the NVT ensemble ####################
# scaling the size of the system to the average volume
variable sidesize equal (f_VoluAve^(1.0/3.0))    # get the volume
variable xlow equal xlo
variable ylow equal ylo
variable zlow equal zlo
variable xhig equal (xlo+31.6833783564039)
variable yhig equal (ylo+31.6833783564039)
variable zhig equal (zlo+31.6833783564039)
change_box all x final 0.0814378757080068 31.7648162321119 y final 0.0814378757080068 31.7648162321119 z final 0.0814378757080068 31.7648162321119
  orthogonal box = (0.0814379 0.0814379 0.0814379) to (31.7648 31.7872 31.7872)
  orthogonal box = (0.0814379 0.0814379 0.0814379) to (31.7648 31.7648 31.7872)
  orthogonal box = (0.0814379 0.0814379 0.0814379) to (31.7648 31.7648 31.7648)
unfix DensAve
unfix VoluAve
unfix TempAve1
unfix PressAve1

# changing the ensemble to NVT
unfix integrate
fix integrate all nvt temp 298.15 298.15 10.0

timestep 0.001
run 5000
PPPM initialization ...
  extracting TIP4P info from pair style
  G vector (1/distance) = 0.311209
  grid = 30 30 30
  stencil order = 5
  estimated absolute RMS force accuracy = 0.00354709
  estimated relative force accuracy = 1.0682e-05
  3d grid and FFT values/proc = 2475 256
Step Density Temp Press TotEng
5000000      1.08071    296.93796   -83638.828    -13162.67
Loop time of 3.73077 on 128 procs for 5000 steps with 3072 atoms

timestep 0.01
run 5000
PPPM initialization ...
  extracting TIP4P info from pair style
  G vector (1/distance) = 0.311209
  grid = 30 30 30
  stencil order = 5
  estimated absolute RMS force accuracy = 0.00354709
  estimated relative force accuracy = 1.0682e-05
  3d grid and FFT values/proc = 2475 256
Step Density Temp Press TotEng
5005000      1.08071    298.75861    473.58751    -13191.83
Loop time of 3.6605 on 128 procs for 5000 steps with 3072 atoms

timestep 0.1
run 5000
PPPM initialization ...
  extracting TIP4P info from pair style
  G vector (1/distance) = 0.311209
  grid = 30 30 30
  stencil order = 5
  estimated absolute RMS force accuracy = 0.00354709
  estimated relative force accuracy = 1.0682e-05
  3d grid and FFT values/proc = 2475 256
Step Density Temp Press TotEng
5010000      1.08071    302.85837    268.74657    -13148.35
Loop time of 3.67817 on 128 procs for 5000 steps with 3072 atoms

timestep 0.2
run 5000
PPPM initialization ...
  extracting TIP4P info from pair style
  G vector (1/distance) = 0.311209
  grid = 30 30 30
  stencil order = 5
  estimated absolute RMS force accuracy = 0.00354709
  estimated relative force accuracy = 1.0682e-05
  3d grid and FFT values/proc = 2475 256
Step Density Temp Press TotEng
5015000      1.08071    305.24898    563.77771    -13174.02
Loop time of 3.73803 on 128 procs for 5000 steps with 3072 atoms

timestep 0.5
run 5000
PPPM initialization ...
  extracting TIP4P info from pair style
  G vector (1/distance) = 0.311209
  grid = 30 30 30
  stencil order = 5
  estimated absolute RMS force accuracy = 0.00354709
  estimated relative force accuracy = 1.0682e-05
  3d grid and FFT values/proc = 2475 256
Step Density Temp Press TotEng
5020000      1.08071    300.13334    412.38869   -13139.877
Loop time of 3.93467 on 128 procs for 5000 steps with 3072 atoms

unfix integrate
fix integrate all nvt temp 298.15 298.15 100.0
# continuing the initialization with the final value of timestep
timestep 2

run 2000000
PPPM initialization ...
  extracting TIP4P info from pair style
  G vector (1/distance) = 0.311209
  grid = 30 30 30
  stencil order = 5
  estimated absolute RMS force accuracy = 0.00354709
  estimated relative force accuracy = 1.0682e-05
  3d grid and FFT values/proc = 2475 256
Step Density Temp Press TotEng
5025000      1.08071    303.75787    333.13015   -13144.256
Averages over the last 11 of 22 rows, steps 6100000 to 7025000:
Density Temp Press TotEng
1.08071 298.312 -67.1148 -13182.6
Loop time of 1658.74 on 128 procs for 2000000 steps with 3072 atoms

reset_timestep 0

#################### 2) Production in NVT ensemble #####################
# computing average total energy, pontential energy, temperature, and pressure over time
variable TotEn equal etotal
fix TEAve all ave/time 1 100000 100000 v_TotEn file TotalE.dat

variable PotEn equal pe
fix PEAve all ave/time 1 100000 100000 v_PotEn file PotenE.dat

compute T all temp
fix TempAve all ave/time 1 100000 100000 c_T file temperature.dat

compute P all pressure T
fix PressAve all ave/time 1 100000 100000 c_P file pressure.dat

# computing self-diffusion and Onsager coefficients using the OCTP plugin
compute positions all position
fix f1 all ordern diffusivity 500 50000 c_positions nb 10 nbe 20

# computing shear and bulk viscosities  using the OCTP plugin
fix f2 all ordern viscosity 5 50000 c_P nb 10 nbe 20

# computing thermal conductivity using the OCTP plugin
compute KE all ke/atom
compute PE all pe/atom
compute ST all stress/atom NULL virial
compute heatflux all heat/flux KE PE ST
fix f3 all ordern thermalconductivity 5 50000 c_heatflux nb 10 nbe 20

# computing the RDF for all group pairs
compute rdfs all rdf/ext Nbin 2000 Nwrite 1000
fix f4 all ave/time 1 1 1000 c_rdfs

dump trjectory all xyz 100000 movie.xyz
dump_modify trjectory element Ow H K Cl

run 50000000
PPPM initialization ...
  extracting TIP4P info from pair style
  G vector (1/distance) = 0.311209
  grid = 30 30 30
  stencil order = 5
  estimated absolute RMS force accuracy = 0.00354709
  estimated relative force accuracy = 1.0682e-05
  3d grid and FFT values/proc = 2475 256
Step Density Temp Press TotEng
0      1.08071     308.0306    142.88705   -13144.439
Averages over the last 41 of 82 rows, steps 4100000 to 8100000:
Density Temp Press TotEng
1.08071 297.116 -67.0104 -13196
