LAMMPS (22 Aug 2018)
####################################################
# Transport properties of KCl in water
#  at 298 K and 1 atm.
#################### SETTING UP ####################
units real
dimension 3
newton on
boundary p p p
atom_style full

#################### VARIABLES ####################
variable Temp equal 298       # Temperature in K
variable Pres equal 1.0       # Pressure in atm.

variable RandomSeed equal 200 # The random seed for velocity
variable tstep equal 2.0      # 2fs
variable Ninptpre equal 10000 # Pre-initialize the NPT ensemble (very small timesteps)
variable Ninpt equal 5000000    # Initialize the NPT ensemble
variable Npnpt equal 5000000  # Production in the NPT ensemble (volume)
variable Ninvtpre equal 10000 # Pre-initialize the NVT ensemble (very small timesteps)
variable Ninvt equal 100000   # Initialize the NVT ensemble
variable Npnvt equal 100000   # Production in the NVT ensemble (energy)
variable Nrun equal 100000000   # production in the NVE ensemble
variable Nf equal 10000       # Nfreq (fix ave/time and thermo)
variable Ne equal  10         # Nevery (fix ave/time)
variable Nr equal 10000/10
variable NBR equal 5000000/50
variable Nd equal 100000/10

variable nb equal 10          # Number of blocks (fix ordern)
variable nbe equal 20         # Number of block elements (fix ordern)
variable Nvisc equal 5        # Nevery for viscosity (fix ordern: sample data at (Nvisc*2))
variable Ncond equal 5        # Nevery for Tconductivity (fix ordern: sample data at (Ncond*2))
variable Ndiff equal 1000     # Nevery for diffusivity (fix ordern: sample data at (Ndiff))
variable Nwrit equal 100000   # Nwrite for transport properties (fix ordern: write every (Nwrit))

variable Nrdfe equal 100      # Nevery for RDF (fix ave/time)
variable Nrdfw equal 1000     # Nwrite for RDF (compute rdf/ext: write every (Nrdfw*Nrdfe))
variable binnum equal 2000    # Number of bins for RDF

#################### ATOM DEFINITION and FORCEFIELD ####################
read_data ./data.lmp                     # read the positions
  orthogonal box = (0 0 0) to (32.8974 32.8974 32.8974)
  reading atoms ...
  3072 atoms
  scanning bonds ...
  scanning angles ...
  reading bonds ...
  2000 bonds
  reading angles ...
  1000 angles
include ./forcefield.data                  # read the force field
#--------INTERMOLECULAR POTENTIAL -------------------#
# ---------------Developed for NaCl in water (tip4p/2005) system-----

mass 1 15.9994 # Ow
mass 2 1.00794 # Hw
mass 3 39.0983 # K
mass 4 35.4527 # Cl

pair_style lj/cut/tip4p/long 1 2 1 1 0.1546 10.0

kspace_style pppm/tip4p 1.0e-5
pair_modify tail yes # ATC i

#-----------------Combinations----------------------------
# atomtype atomtype epsilon sigma

pair_coeff 1 1 0.1851 3.1589     # Ow-Ow
pair_coeff 1 2 0.0000 0.0000     # Ow-Hw
pair_coeff 1 3 0.3347 2.89540     # Ow-K
pair_coeff 1 4 0.0148 4.07631     # Ow-Cl

pair_coeff 2 2 0.0000 0.0000     # Hw-Hw
pair_coeff 2 3 0.0000 0.0000     # Hw-K
pair_coeff 2 4 0.0000 0.0000     # Hw-Cl

pair_coeff 3 3 0.4746 2.30140     # K-K
pair_coeff 3 4 0.3346 3.41700     # K-Cl

pair_coeff 4 4 0.0184 4.69906     # Cl-Cl

bond_style  harmonic
bond_coeff 1 1000 0.9572          # Ow-Hw

angle_style harmonic
angle_coeff 1 100 104.52          # H-O-H

#dihedral_style none
#improper_style none

set type 1 charge -1.1128        # O
  1000 settings made for charge
set type 2 charge +0.5564        # OH
  2000 settings made for charge
set type 3 charge +0.7500        # K
  36 settings made for charge
set type 4 charge -0.7500        # Cl
  36 settings made for charge

#################### INITIALIZATION ####################
# groups for the central atoms of water (O)
group wat type 1      # The Oxygen of WATER molecules
1000 atoms in group wat
group K type 3
36 atoms in group K
group Cl type 4
36 atoms in group Cl

# neigbor lists
neighbor 2.0 bin
neigh_modify every 1 delay 0 check yes

# velocity-Verlet integrator
run_style verlet

# minimizing the system using the conjugate gradient method
min_style cg
min_modify dmax 0.05
minimize 1.0e-6 1.0e-6 1000 10000
PPPM initialization ...
  extracting TIP4P info from pair style
  G vector (1/distance) = 0.308492
  grid = 30 30 30
  stencil order = 5
  estimated absolute RMS force accuracy = 0.00396779
  estimated relative force accuracy = 1.19489e-05
  3d grid and FFT values/proc = 2475 256
  update every 1 steps, delay 0 steps, check yes
Step Temp E_pair E_mol TotEng Press
0            0   -533.24652 3.2833764e-05   -533.24649    18749.729
Loop time of 1.41163 on 128 procs for 1000 steps with 3072 atoms

Minimization stats:
  Stopping criterion = max iterations
  Energy initial, next-to-last, final =
  Force two-norm initial, final = 1265.98 42.907
  Force max component initial, final = 165.576 8.87677
  Final line search alpha, max atom move = 0.00715157 0.0634828
  Iterations, force evaluations = 1000 1788

reset_timestep 0

# initializing velocities
velocity all create 298 200

# rate of writing thermal properties to the log file
thermo 10000

#################### 1) Initialize the NPT ensemble ####################
# applying the shake algorithm for rigid molecules and the NPT solver
fix constrain all shake 1.0e-6 1000 0 b 1 a 1
fix integrate all npt temp 298 298 10.0 iso 1 1 100.0

# Initializing the whole system with very small timesteps in the NPT ensemble
timestep 0.001
run 10000
PPPM initialization ...
  extracting TIP4P info from pair style
  G vector (1/distance) = 0.308492
  grid = 30 30 30
  stencil order = 5
  estimated absolute RMS force accuracy = 0.00396779
  estimated relative force accuracy = 1.19489e-05
  3d grid and FFT values/proc = 2475 256
Step Temp E_pair E_mol TotEng Press Volume
0    441.89184   -17665.195            0   -14937.283     -1614797    35602.788
Loop time of 9.21977 on 128 procs for 10000 steps with 3072 atoms

timestep 0.01
run 10000
PPPM initialization ...
  extracting TIP4P info from pair style
  G vector (1/distance) = 0.308589
  grid = 30 30 30
  stencil order = 5
  estimated absolute RMS force accuracy = 0.00395207
  estimated relative force accuracy = 1.19015e-05
  3d grid and FFT values/proc = 2475 256
Step Temp E_pair E_mol TotEng Press Volume
10000    171.77326   -16073.874            0   -15013.474   -39494.636    35460.994
Loop time of 9.00409 on 128 procs for 10000 steps with 3072 atoms

timestep 0.1
run 10000
PPPM initialization ...
  extracting TIP4P info from pair style
  G vector (1/distance) = 0.308302
  grid = 30 30 30
  stencil order = 5
  estimated absolute RMS force accuracy = 0.00399888
  estimated relative force accuracy = 1.20425e-05
  3d grid and FFT values/proc = 2475 256
Step Temp E_pair E_mol TotEng Press Volume
20000    297.94411   -14952.762            0   -13113.476   -14214.531     35883.18
Loop time of 9.1939 on 128 procs for 10000 steps with 3072 atoms

timestep 0.2
run 10000
PPPM initialization ...
  extracting TIP4P info from pair style
  G vector (1/distance) = 0.310932
  grid = 30 30 30
  stencil order = 5
  estimated absolute RMS force accuracy = 0.00358798
  estimated relative force accuracy = 1.08051e-05
  3d grid and FFT values/proc = 2475 256
Step Temp E_pair E_mol TotEng Press Volume
30000    291.59761   -14892.192            0   -13092.085    2109.9879    32174.379
Loop time of 9.29457 on 128 procs for 10000 steps with 3072 atoms

timestep 0.5
run 10000
PPPM initialization ...
  extracting TIP4P info from pair style
  G vector (1/distance) = 0.311169
  grid = 30 30 30
  stencil order = 5
  estimated absolute RMS force accuracy = 0.00355293
  estimated relative force accuracy = 1.06995e-05
  3d grid and FFT values/proc = 2475 256
Step Temp E_pair E_mol TotEng Press Volume
40000    296.67727   -15005.515            0    -13174.05   -768.50536    31857.685
Loop time of 10.138 on 128 procs for 10000 steps with 3072 atoms

reset_timestep 0

# continuing the initialization with the final value of timestep
unfix integrate
fix integrate all npt temp 298 298 100.0 iso 1 1 1000.0

timestep 2
run 5000000
PPPM initialization ...
  extracting TIP4P info from pair style
  G vector (1/distance) = 0.311082
  grid = 30 30 30
  stencil order = 5
  estimated absolute RMS force accuracy = 0.00356578
  estimated relative force accuracy = 1.07382e-05
  3d grid and FFT values/proc = 2475 256
Step Temp E_pair E_mol TotEng Press Volume
0     292.1812   -14973.383            0   -13169.673   -492.84135    31973.798
Averages over the last 251 of 501 rows, steps 2500000 to 5000000:
Temp E_pair E_mol TotEng Press Volume
298.64 -15033.2 0 -13189.6 -19.3155 31826.5
Loop time of 5057.61 on 128 procs for 5000000 steps with 3072 atoms

reset_timestep 0

#################### 2) Obtaining average volume in NPT ######################
# Getting the average volume of the system
variable Volume equal vol
fix VoluAve all ave/time 1 5000000 5000000 v_Volume file volume.dat

# Thermo style for outputing system properties to the log file
thermo_style custom density
thermo_modify flush yes

variable Dens equal density
fix DensAve all ave/time 1 100000 100000 v_Dens file density.dat

run 5000000
PPPM initialization ...
  extracting TIP4P info from pair style
  G vector (1/distance) = 0.31106
  grid = 30 30 30
  stencil order = 5
  estimated absolute RMS force accuracy = 0.00356905
  estimated relative force accuracy = 1.07481e-05
  3d grid and FFT values/proc = 2475 256
Density
   1.0740021
     1.07971
   1.0706495
   1.0999823
     1.08602
   1.0848297
   1.0770238
   1.0795843
    1.079319
   1.0740985
   1.0817862
   1.0835243
   1.0788348
    1.076567
   1.0705258
     1.06622
   1.0909767
   1.0849196
   1.0737894
   1.0788297
   1.0567667
   1.0735456
   1.0798933
   1.0929873
   1.0697653
   1.0949293
   1.0804131
   1.0709613
   1.0968369
   1.0795598
   1.0890336
   1.0821882
   1.0839703
   1.0834249
   1.0782891
   1.0822838
   1.0931239
   1.0987551
   1.0716349
   1.0865765
    1.078644
   1.0742707
   1.0813222
   1.0793414
   1.0865761
   1.0786922
   1.0766601
   1.0708452
   1.0859295
   1.0797199
   1.0978752
   1.0748604
    1.087436
   1.0922141
   1.0729412
   1.0790651
    1.078371
   1.0693525
   1.0761441
   1.0833123
   1.0727072
   1.0720725
   1.0726954
   1.0751074
   1.0816303
   1.0897951
   1.0851368
   1.0744106
   1.0864354
   1.0876654
   1.0829833
    1.088193
   1.0789061
   1.0924804
   1.0567038
   1.0964718
   1.0785757
   1.0643369
   1.0674468
   1.0772931
   1.0813892
   1.1039906
   1.0647957
   1.0840429
   1.0759793
   1.0795628
   1.0791647
   1.0906794
   1.0750078
   1.0916985
   1.0705317
   1.0905937
   1.0826734
   1.0757847
   1.0825239
   1.0821337
   1.0907662
   1.0872051
   1.0788179
    1.081764
   1.0681357
   1.0845741
   1.0708035
   1.0896215
   1.0843855
   1.0770583
   1.0661144
   1.0837171
   1.0837195
    1.076317
   1.0740055
   1.0783694
   1.0786812
   1.0846884
    1.081668
   1.0722848
   1.0693533
   1.0931619
   1.0865841
   1.0861781
   1.0823053
   1.0814844
   1.0940844
   1.0789062
   1.0672961
    1.078903
   1.0844395
    1.055036
   1.0857767
   1.0866703
   1.0841834
    1.065512
   1.0919787
   1.0812181
   1.0881272
   1.0737896
   1.0895879
   1.0747781
   1.0708783
   1.0895457
   1.0794049
   1.0895829
    1.073768
   1.0798621
   1.0850415
    1.090004
   1.0705539
   1.0984942
   1.0801513
   1.0933158
   1.0989413
   1.0848511
    1.087557
    1.089238
   1.0876904
   1.0572288
    1.075318
   1.0937184
   1.0692167
   1.0796229
   1.0806841
   1.0777053
   1.0809925
   1.1008104
   1.0688317
    1.084621
   1.0902583
   1.0874788
    1.076238
   1.0833066
   1.0825705
   1.0801451
   1.0744799
   1.0788301
   1.0629228
   1.0942936
   1.0858537
   1.0885687
   1.0724744
   1.0815214
    1.073744
   1.0783198
   1.0910521
   1.0792602
   1.0821615
   1.0636224
   1.0847248
   1.0781457
   1.0798612
   1.0799179
   1.1017444
   1.0824351
   1.0922758
    1.070567
   1.0814546
   1.0802011
    1.084264
   1.0831619
   1.0862124
   1.0730312
   1.0856993
   1.0697146
   1.0779704
   1.0806269
    1.079073
   1.0711035
    1.092288
    1.081667
   1.0700429
   1.0846268
   1.0797638
   1.0926939
   1.0754864
   1.0764106
   1.0733662
   1.0860346
   1.0820116
   1.0697192
   1.0868071
   1.0847271
    1.073276
   1.0832209
   1.0822415
   1.0801402
   1.0798156
   1.0912216
   1.0872941
   1.0819769
   1.0816073
   1.0741048
   1.0850011
   1.0644239
   1.0722743
   1.0870341
   1.0802123
   1.0894368
    1.067276
   1.0788566
   1.0982498
   1.0821995
   1.0669036
   1.0863596
    1.076755
   1.0727393
   1.0849394
   1.0865153
   1.0855825
   1.0847451
   1.0798615
   1.0937549
   1.0851148
   1.0871202
   1.0956902
   1.0907225
    1.100714
   1.0805359
   1.1061437
   1.0932933
   1.0803845
   1.0899879
   1.0697599
   1.0835531
   1.0891094
    1.070927
   1.0722967
   1.0809485
   1.0787813
   1.0853239
   1.0899405
    1.084395
   1.0682516
   1.0872209
   1.0846508
   1.0936555
   1.0588739
   1.0681264
   1.0896663
   1.0863501
   1.0811069
   1.0813388
   1.0824888
   1.0887676
   1.0862927
   1.0807712
   1.0718287
   1.0619705
   1.0843254
   1.0738728
   1.0843529
   1.0706808
   1.0909152
   1.0821525
     1.08505
   1.0815503
   1.0626908
   1.0900359
   1.0732396
   1.0847912
   1.0810862
   1.0831534
   1.0881207
   1.0771894
   1.0652304
   1.0766828
   1.0803226
   1.0698129
   1.0835404
   1.0739261
   1.0810361
   1.0663022
   1.0995179
   1.0818077
   1.0756989
   1.0853056
    1.090294
   1.0938418
   1.0662613
   1.0874746
   1.0655853
   1.0910922
     1.07454
   1.0809279
   1.0814652
   1.0910736
   1.0948343
    1.071923
   1.0841804
   1.0882408
   1.0839622
    1.085311
   1.0776482
   1.0782795
   1.0981478
   1.0916122
   1.0847786
   1.0676022
   1.0686895
   1.0785694
   1.0842756
   1.0731066
   1.0718336
   1.0736576
   1.0749985
   1.0760013
   1.0857634
   1.0935255
    1.095497
   1.0800214
   1.0796138
    1.058978
   1.0867917
   1.0758435
    1.077978
   1.0770418
   1.1001258
   1.0859323
    1.074443
   1.0723115
   1.0735924
   1.0654112
   1.0845175
   1.0838121
   1.0839936
   1.0839458
   1.0778513
   1.0777617
   1.1025793
   1.0787137
   1.0814869
   1.0685111
    1.059817
   1.0755844
   1.0790612
   1.0950818
   1.0691287
   1.0820573
   1.0815078
   1.0610454
   1.0763651
   1.0714178
   1.0774879
   1.0902733
   1.0882448
   1.0765688
   1.0663274
    1.081502
   1.0773221
   1.0949837
   1.0828897
   1.0631905
   1.0816179
   1.0893967
     1.08937
   1.0637791
   1.0606095
    1.088168
   1.0881965
   1.0780678
   1.0855355
   1.0768804
   1.0985947
   1.0777454
   1.0903294
   1.0791779
   1.0765407
   1.0744016
   1.0826141
   1.0824065
   1.0739505
   1.0878736
   1.0724532
   1.0756725
   1.0696924
   1.0834142
   1.0739352
   1.0759617
   1.0789594
   1.0817812
   1.0947268
   1.0582971
   1.0829326
   1.0754915
    1.077143
   1.0835717
   1.0843184
   1.0776936
   1.1089393
   1.0836991
   1.0947805
   1.0843345
   1.0751915
   1.0905156
   1.0847096
   1.0701703
   1.0742223
   1.0925031
   1.0804406
   1.0838771
   1.0780979
   1.0741608
   1.0769456
   1.0823163
     1.09312
   1.0887487
   1.0897319
   1.0828558
   1.0782949
   1.0850899
    1.083544
   1.0743274
   1.0802703
   1.0903526
   1.0971686
   1.0882319
   1.0885112
   1.0711856
    1.083772
   1.0816419
   1.0775525
   1.0907976
   1.0734638
   1.0711954
   1.0749432
    1.062807
   1.0807724
     1.07454
   1.0746034
   1.0863063
   1.0662661
   1.0794473
   1.0735719
   1.0933983
   1.0946052
    1.086098
    1.096422
   1.0929928
   1.0793268
   1.0675903
   1.0878547
   1.0701399
    1.093158
   1.0797989
   1.0801361
   1.0633047
   1.0812381
   1.0790935
   1.0861766
   1.0942422
   1.0752693
   1.0694957
   1.0788773
   1.0621553
   1.0959381
   1.0931594
   1.0772553
    1.089199
   1.0722257
   1.0837665
   1.0820176
   1.0705847
   1.0975894
Loop time of 5123.17 on 128 procs for 5000000 steps with 3072 atoms

reset_timestep 0

#################### 3) Initializing the NVT ensemble ####################
# scaling the size of the system to the average volume
variable sidesize equal (f_VoluAve^(1.0/3.0))    # get the volume
variable xlow equal xlo
variable ylow equal ylo
variable zlow equal zlo
variable xhig equal (xlo+31.6853385317208)
variable yhig equal (ylo+31.6853385317208)
variable zhig equal (zlo+31.6853385317208)
change_box all x final 0.688663045126464 32.3740015768473 y final 0.688663045126464 32.3740015768473 z final 0.688663045126464 32.3740015768473
  orthogonal box = (0.688663 0.688663 0.688663) to (32.374 32.2087 32.2087)
  orthogonal box = (0.688663 0.688663 0.688663) to (32.374 32.374 32.2087)
  orthogonal box = (0.688663 0.688663 0.688663) to (32.374 32.374 32.374)
unfix DensAve
unfix VoluAve

# changing the ensemble to NVT
unfix integrate
fix integrate all nvt temp 298 298 100.0

# Initializing the whole system with very small timesteps in the NVT ensemble
timestep 0.001
run 10000
PPPM initialization ...
  extracting TIP4P info from pair style
  G vector (1/distance) = 0.311205
  grid = 30 30 30
  stencil order = 5
  estimated absolute RMS force accuracy = 0.00354775
  estimated relative force accuracy = 1.06839e-05
  3d grid and FFT values/proc = 2475 256
Density
   1.0805026
   1.0805026
Loop time of 7.96583 on 128 procs for 10000 steps with 3072 atoms

timestep 0.01
run 10000
PPPM initialization ...
  extracting TIP4P info from pair style
  G vector (1/distance) = 0.311205
  grid = 30 30 30
  stencil order = 5
  estimated absolute RMS force accuracy = 0.00354775
  estimated relative force accuracy = 1.06839e-05
  3d grid and FFT values/proc = 2475 256
Density
   1.0805026
   1.0805026
Loop time of 8.01144 on 128 procs for 10000 steps with 3072 atoms

timestep 0.1
run 10000
PPPM initialization ...
  extracting TIP4P info from pair style
  G vector (1/distance) = 0.311205
  grid = 30 30 30
  stencil order = 5
  estimated absolute RMS force accuracy = 0.00354775
  estimated relative force accuracy = 1.06839e-05
  3d grid and FFT values/proc = 2475 256
Density
   1.0805026
   1.0805026
Loop time of 7.57039 on 128 procs for 10000 steps with 3072 atoms

timestep 0.2
run 10000
PPPM initialization ...
  extracting TIP4P info from pair style
  G vector (1/distance) = 0.311205
  grid = 30 30 30
  stencil order = 5
  estimated absolute RMS force accuracy = 0.00354775
  estimated relative force accuracy = 1.06839e-05
  3d grid and FFT values/proc = 2475 256
Density
   1.0805026
   1.0805026
Loop time of 8.57224 on 128 procs for 10000 steps with 3072 atoms

timestep 0.5
run 10000
PPPM initialization ...
  extracting TIP4P info from pair style
  G vector (1/distance) = 0.311205
  grid = 30 30 30
  stencil order = 5
  estimated absolute RMS force accuracy = 0.00354775
  estimated relative force accuracy = 1.06839e-05
  3d grid and FFT values/proc = 2475 256
Density
   1.0805026
   1.0805026
Loop time of 7.91607 on 128 procs for 10000 steps with 3072 atoms

reset_timestep 0

# continuing the initialization with the final value of timestep
timestep 2
run 100000
PPPM initialization ...
  extracting TIP4P info from pair style
  G vector (1/distance) = 0.311205
  grid = 30 30 30
  stencil order = 5
  estimated absolute RMS force accuracy = 0.00354775
  estimated relative force accuracy = 1.06839e-05
  3d grid and FFT values/proc = 2475 256
Density
   1.0805026
   1.0805026
   1.0805026
   1.0805026
   1.0805026
   1.0805026
   1.0805026
   1.0805026
   1.0805026
   1.0805026
   1.0805026
Loop time of 81.7378 on 128 procs for 100000 steps with 3072 atoms

reset_timestep 0

#################### 4) Obtaining average total energy in NVT #####################
thermo_style custom temp pe ke etotal
thermo_modify flush yes

variable T1 equal temp
variable TE1 equal etotal
variable KE1 equal ke
variable PE1 equal pe
fix Tave1 all ave/time 100000 1 100000 v_T1
fix TEave1 all ave/time 1 100000 100000 v_TE1
fix KEave1 all ave/time 100000 1 100000 v_KE1
fix PEave1 all ave/time 100000 1 100000 v_PE1

dump trjectory all xyz 10000 movie.xyz
dump_modify trjectory element O H K Cl

run 100000
PPPM initialization ...
  extracting TIP4P info from pair style
  G vector (1/distance) = 0.311205
  grid = 30 30 30
  stencil order = 5
  estimated absolute RMS force accuracy = 0.00354775
  estimated relative force accuracy = 1.06839e-05
  3d grid and FFT values/proc = 2475 256
Temp PotEng KinEng TotEng
Loop time of 89.1071 on 128 procs for 100000 steps with 3072 atoms

reset_timestep 0

undump trjectory

#################### 3) Simulating transport properties in NVT ensmeble ######################

unfix Tave1
unfix TEave1
unfix KEave1
unfix PEave1
variable T1 delete
variable TE1 delete
variable KE1 delete
variable PE1 delete

# computing average total energy, pontential energy, temperature, and pressure over time
variable TotEn equal etotal
fix TEAve all ave/time 10 1000 10000 v_TotEn file TotalE.dat

variable PotEn equal pe
fix PEAve all ave/time 10 1000 10000 v_PotEn file PotenE.dat

compute T all temp
fix TempAve all ave/time 10 1000 10000 c_T file temperature.dat

compute P all pressure T
fix PressAve all ave/time 10 1000 10000 c_P file pressure.dat

# computing self-diffusion and Onsager coefficients using the OCTP plugin
compute positions all position
fix f3 all ordern diffusivity 1000 100000 c_positions nb 10 nbe 20 file diffself.dat diffonsag.dat

# computing shear and bulk viscosities  using the OCTP plugin
fix f1 all ordern viscosity 5 100000 c_P nb 10 nbe 20 file viscosity.dat

# computing the RDF for all group pairs
compute rdfs all rdf/ext Nbin 2000 Nwrite 1000 file rdf.dat
fix f4 all ave/time 1 1 100 c_rdfs

# Thermo style for outputing system properties to the log file
thermo_style custom step temp f_TempAve press f_PressAve pe ke etotal
thermo_modify flush yes

run 100000000
PPPM initialization ...
  extracting TIP4P info from pair style
  G vector (1/distance) = 0.311205
  grid = 30 30 30
  stencil order = 5
  estimated absolute RMS force accuracy = 0.00354775
  estimated relative force accuracy = 1.06839e-05
  3d grid and FFT values/proc = 2475 256
Step Temp f_TempAve Press f_PressAve PotEng KinEng TotEng
0    294.45881            0    -16.36921            0   -15117.295    1817.7701   -13299.525
Averages over the last 5001 of 10001 rows, steps 50000000 to 100000000:
Temp f_TempAve Press f_PressAve PotEng KinEng TotEng
298.037 297.999 -16.326 -7.89731 -15036.5 1839.86 -13196.7
Loop time of 91122.8 on 128 procs for 100000000 steps with 3072 atoms

quit
