LAMMPS (16 Mar 2018)
####################################################
# Preprocessing Li2SO4 in water
#################### SETTING UP ####################
units real
dimension 3
newton on
boundary p p p
atom_style full

#################### VARIABLES ####################
variable Temp equal 298.15    # Temperature in K
variable Pres equal 1    # Pressure in atm.

variable RandomSeed equal 44 # The random seed for velocity
variable tstep equal 2 # timestep in fs

#################### NPT ####################
variable Ninptpre equal 5000 # Pre-initialize the NPT ensemble (very small timesteps)
variable Ninpt equal 5000000  # Initialize the NPT ensemble
variable Npnpt equal 5000000  # Production in the NPT ensemble (volume)

#################### NVT ####################
variable Ninvtpre equal 5000  # Pre-initialize the NVT ensemble (very small timesteps)
variable Ninvt equal 2000000  # Initialize the NVT ensemble 2.5Mstep
variable Nrun3 equal 100000000  # production in the NVT ensemble (Transport properties)

variable Nf equal 100000      # Nfreq (fix ave/time and thermo)
variable Ne equal  1          # Nevery (fix ave/time)
variable Nr equal 100000/1
variable Nd equal 100000
variable NBR equal 5000000/100

variable nb equal 10          # Number of blocks (fix ordern)
variable nbe equal 20         # Number of block elements (fix ordern)
variable Nvisc equal 5        # Nevery for viscosity (fix ordern: sample data at (Nvisc*2))
variable Ncond equal 5        # Nevery for Tconductivity (fix ordern: sample data at (Ncond*2))
variable Ndiff equal 500     # Nevery for diffusivity (fix ordern: sample data at (Ndiff))
variable Nwrit equal 50000   # Nwrite for transport properties (fix ordern: write every (Nwrit))

variable Nrdfe equal 1000     # Nevery for RDF (fix ave/time)
variable Nrdfw equal 1000     # Nwrite for RDF (compute rdf/ext: write every (Nrdfw*Nrdfe))
variable binnum equal 2000    # Number of bins for RDF

#################### ATOM DEFINITION and FORCEFIELD ####################
read_data ./data.lmp                     # read the positions
  orthogonal box = (0 0 0) to (26.1901 26.1901 26.1901)
  reading atoms ...
  1705 atoms
  scanning bonds ...
  scanning angles ...
  reading bonds ...
  1110 bonds
  reading angles ...
  555 angles
include ./forcefield.data                # read the force field
#--------INTERMOLECULAR POTENTIAL -------------------#
# --------Developed for MadridT KCl + TIP4P/2005-----#

mass 1 15.9994	# Ow
mass 2 1.008	# Hw
mass 3 39.0983	# K
mass 4 35.453	# Cl

pair_style lj/cut/tip4p/long 1 2 1 1 0.1546 10.0
kspace_style pppm/tip4p 1.0e-5
pair_modify mix arithmetic tail yes # ATC and Lorentz-Berthelot combining rules

#-----------------Combinations----------------------------
# atomtype atomtype epsilon sigma

pair_coeff 1 1 0.185207 3.15890    # Ow-Ow
pair_coeff 1 2 0.000000 0.00000    # Ow-Hw
pair_coeff 1 3 0.334711 2.89540    # Ow-K
pair_coeff 1 4 0.014814 4.07631    # Ow-Cl

pair_coeff 2 2 0.000000 0.00000    # Hw-Hw
pair_coeff 2 3 0.000000 0.00000    # Hw-K
pair_coeff 2 4 0.000000 0.00000    # Hw-Cl

pair_coeff 3 3 0.474603 2.30140    # K-K
pair_coeff 3 4 0.334608 3.41700    # K-Cl

pair_coeff 4 4 0.018385 4.69906    # Cl-Cl

bond_style  harmonic
bond_coeff 1 2000 0.9572           # Ow-Hw

angle_style harmonic
angle_coeff 1 200 104.52           # H-Ow-H

#dihedral_style none
#improper_style none

set type 1 charge -1.1128          # O
  555 settings made for charge
set type 2 charge +0.5564          # OH
  1110 settings made for charge
set type 3 charge +0.7500          # K
  20 settings made for charge
set type 4 charge -0.7500          # Cl
  20 settings made for charge

#################### INITIALIZATION ####################
group wat type 1		# O water
555 atoms in group wat
group K type 3			# Potasium ion
20 atoms in group K
group Cl type 4			# Chlorine ion
20 atoms in group Cl

# neigbor lists
neighbor 2.0 bin
neigh_modify every 1 delay 0 check yes

# velocity-Verlet integrator
run_style verlet

# initializing velocities
velocity all create 298.15 44

# rate of writing thermal properties to the log file
thermo_style custom step density temp press etotal
thermo_modify flush yes
thermo 100000

#################### 2) Initialize the NPT ensemble ####################
######### Go to the correct temperature now ant initiate that ##########
fix constrain all shake 1.0e-6 1000 0 b 1 a 1
fix integrate all npt temp 298.15 298.15 10.0 iso 1 1 100.0

# Initializing the whole system with very small timesteps in the NPT ensemble
timestep 0.001
run 5000
PPPM initialization ...
  extracting TIP4P info from pair style
  G vector (1/distance) = 0.311788
  grid = 25 25 25
  stencil order = 5
  estimated absolute RMS force accuracy = 0.00339123
  estimated relative force accuracy = 1.02126e-05
  3d grid and FFT values/proc = 2156 200
  update every 1 steps, delay 0 steps, check yes
Step Density Temp Press TotEng
0    1.0620365    442.16501   -612903.56    3296.5905
Loop time of 3.37813 on 128 procs for 5000 steps with 1705 atoms

timestep 0.01
run 5000
PPPM initialization ...
  extracting TIP4P info from pair style
  G vector (1/distance) = 0.310867
  grid = 25 25 25
  stencil order = 5
  estimated absolute RMS force accuracy = 0.00352322
  estimated relative force accuracy = 1.06101e-05
  3d grid and FFT values/proc = 2156 200
Step Density Temp Press TotEng
5000    1.0219245    603.43142    2442135.9    2314.8801
Loop time of 3.22927 on 128 procs for 5000 steps with 1705 atoms

timestep 0.1
run 5000
PPPM initialization ...
  extracting TIP4P info from pair style
  G vector (1/distance) = 0.309657
  grid = 25 25 25
  stencil order = 5
  estimated absolute RMS force accuracy = 0.00370384
  estimated relative force accuracy = 1.1154e-05
  3d grid and FFT values/proc = 2156 200
Step Density Temp Press TotEng
10000   0.97174821    339.27536   -72294.219   -4770.7311
Loop time of 3.5864 on 128 procs for 5000 steps with 1705 atoms

timestep 0.2
run 5000
PPPM initialization ...
  extracting TIP4P info from pair style
  G vector (1/distance) = 0.310197
  grid = 24 24 24
  stencil order = 5
  estimated absolute RMS force accuracy = 0.003851
  estimated relative force accuracy = 1.15972e-05
  3d grid and FFT values/proc = 1690 144
Step Density Temp Press TotEng
15000    1.1232135    305.41956   -2483.3872   -7128.1016
Loop time of 3.73624 on 128 procs for 5000 steps with 1705 atoms

timestep 0.5
run 5000
PPPM initialization ...
  extracting TIP4P info from pair style
  G vector (1/distance) = 0.312666
  grid = 25 25 25
  stencil order = 5
  estimated absolute RMS force accuracy = 0.00326961
  estimated relative force accuracy = 9.84632e-06
  3d grid and FFT values/proc = 2156 200
Step Density Temp Press TotEng
20000     1.101929    287.34729    2116.9662   -7275.7076
Loop time of 3.66653 on 128 procs for 5000 steps with 1705 atoms

reset_timestep 0

# continuing the initialization with the final value of timestep
unfix integrate
fix integrate all npt temp 298.15 298.15 100.0 iso 1 1 1000.0

timestep 2
run 5000000
PPPM initialization ...
  extracting TIP4P info from pair style
  G vector (1/distance) = 0.312301
  grid = 25 25 25
  stencil order = 5
  estimated absolute RMS force accuracy = 0.00331966
  estimated relative force accuracy = 9.99704e-06
  3d grid and FFT values/proc = 2156 200
Step Density Temp Press TotEng
0    1.0851507    298.71739    1079.3472   -7300.2416
Averages over the last 26 of 51 rows, steps 2500000 to 5000000:
Density Temp Press TotEng
1.07894 297.205 -32.8337 -7329.1
Loop time of 4435.13 on 128 procs for 5000000 steps with 1705 atoms

reset_timestep 0

#################### 3) Obtaining average volume in NPT ######################
# Creating restart files
restart 100000 1.restart 2.restart

# Getting the average volume of the system
variable Volume equal vol
fix VoluAve all ave/time 1 5000000 5000000 v_Volume file volume.dat

variable Dens equal density
fix DensAve all ave/time 1 50000 50000 v_Dens file density.dat

compute T1 all temp
fix TempAve1 all ave/time 1 50000 50000 c_T1 file temperatureNPT.dat

compute P1 all pressure T1
fix PressAve1 all ave/time 1 50000 50000 c_P1 file pressureNPT.dat

run 5000000
PPPM initialization ...
  extracting TIP4P info from pair style
  G vector (1/distance) = 0.312288
  grid = 25 25 25
  stencil order = 5
  estimated absolute RMS force accuracy = 0.0033214
  estimated relative force accuracy = 1.00023e-05
  3d grid and FFT values/proc = 2156 200
Step Density Temp Press TotEng
0    1.0845749    309.10717   -457.83122   -7326.8793
Averages over the last 26 of 51 rows, steps 2500000 to 5000000:
Density Temp Press TotEng
1.08001 298.13 -156.458 -7324.77
Loop time of 4515.44 on 128 procs for 5000000 steps with 1705 atoms

#################### 4) Initializing the NVT ensemble ####################
# scaling the size of the system to the average volume
variable sidesize equal (f_VoluAve^(1.0/3.0))    # get the volume
variable xlow equal xlo
variable ylow equal ylo
variable zlow equal zlo
variable xhig equal (xlo+26.0397709512149)
variable yhig equal (ylo+26.0397709512149)
variable zhig equal (zlo+26.0397709512149)
change_box all x final 0.0499941825650705 26.08976513378 y final 0.0499941825650705 26.08976513378 z final 0.0499941825650705 26.08976513378
  orthogonal box = (0.0499942 0.0499942 0.0499942) to (26.0898 26.1401 26.1401)
  orthogonal box = (0.0499942 0.0499942 0.0499942) to (26.0898 26.0898 26.1401)
  orthogonal box = (0.0499942 0.0499942 0.0499942) to (26.0898 26.0898 26.0898)
unfix DensAve
unfix VoluAve
unfix TempAve1
unfix PressAve1

# changing the ensemble to NVT
unfix integrate
fix integrate all nvt temp 298.15 298.15 10.0

timestep 0.001
run 5000
PPPM initialization ...
  extracting TIP4P info from pair style
  G vector (1/distance) = 0.3122
  grid = 25 25 25
  stencil order = 5
  estimated absolute RMS force accuracy = 0.00333368
  estimated relative force accuracy = 1.00393e-05
  3d grid and FFT values/proc = 2156 200
Step Density Temp Press TotEng
5000000    1.0805415    290.64867   -5348.8842   -7275.2206
Loop time of 2.80518 on 128 procs for 5000 steps with 1705 atoms

timestep 0.01
run 5000
PPPM initialization ...
  extracting TIP4P info from pair style
  G vector (1/distance) = 0.3122
  grid = 25 25 25
  stencil order = 5
  estimated absolute RMS force accuracy = 0.00333368
  estimated relative force accuracy = 1.00393e-05
  3d grid and FFT values/proc = 2156 200
Step Density Temp Press TotEng
5005000    1.0805415    291.58167    183.03188   -7305.3375
Loop time of 2.83591 on 128 procs for 5000 steps with 1705 atoms

timestep 0.1
run 5000
PPPM initialization ...
  extracting TIP4P info from pair style
  G vector (1/distance) = 0.3122
  grid = 25 25 25
  stencil order = 5
  estimated absolute RMS force accuracy = 0.00333368
  estimated relative force accuracy = 1.00393e-05
  3d grid and FFT values/proc = 2156 200
Step Density Temp Press TotEng
5010000    1.0805415    284.89754   -346.85577   -7376.7782
Loop time of 6.63804 on 128 procs for 5000 steps with 1705 atoms

timestep 0.2
run 5000
PPPM initialization ...
  extracting TIP4P info from pair style
  G vector (1/distance) = 0.3122
  grid = 25 25 25
  stencil order = 5
  estimated absolute RMS force accuracy = 0.00333368
  estimated relative force accuracy = 1.00393e-05
  3d grid and FFT values/proc = 2156 200
Step Density Temp Press TotEng
5015000    1.0805415     309.5361   -479.28567   -7296.7402
Loop time of 3.15973 on 128 procs for 5000 steps with 1705 atoms

timestep 0.5
run 5000
PPPM initialization ...
  extracting TIP4P info from pair style
  G vector (1/distance) = 0.3122
  grid = 25 25 25
  stencil order = 5
  estimated absolute RMS force accuracy = 0.00333368
  estimated relative force accuracy = 1.00393e-05
  3d grid and FFT values/proc = 2156 200
Step Density Temp Press TotEng
5020000    1.0805415    294.32103    465.29626   -7380.6046
Loop time of 3.34533 on 128 procs for 5000 steps with 1705 atoms

unfix integrate
fix integrate all nvt temp 298.15 298.15 100.0
# continuing the initialization with the final value of timestep
timestep 2

run 2000000
PPPM initialization ...
  extracting TIP4P info from pair style
  G vector (1/distance) = 0.3122
  grid = 25 25 25
  stencil order = 5
  estimated absolute RMS force accuracy = 0.00333368
  estimated relative force accuracy = 1.00393e-05
  3d grid and FFT values/proc = 2156 200
Step Density Temp Press TotEng
5025000    1.0805415     301.8268    121.22862    -7382.585
Averages over the last 11 of 22 rows, steps 6100000 to 7025000:
Density Temp Press TotEng
1.08054 297.859 46.4603 -7330.41
Loop time of 1268.67 on 128 procs for 2000000 steps with 1705 atoms

reset_timestep 0

#################### 2) Production in NVT ensemble #####################
# computing average total energy, pontential energy, temperature, and pressure over time
variable TotEn equal etotal
fix TEAve all ave/time 1 100000 100000 v_TotEn file TotalE.dat

variable PotEn equal pe
fix PEAve all ave/time 1 100000 100000 v_PotEn file PotenE.dat

compute T all temp
fix TempAve all ave/time 1 100000 100000 c_T file temperature.dat

compute P all pressure T
fix PressAve all ave/time 1 100000 100000 c_P file pressure.dat

# computing self-diffusion and Onsager coefficients using the OCTP plugin
compute positions all position
fix f1 all ordern diffusivity 500 50000 c_positions nb 10 nbe 20

# computing shear and bulk viscosities  using the OCTP plugin
fix f2 all ordern viscosity 5 50000 c_P nb 10 nbe 20

# computing thermal conductivity using the OCTP plugin
compute KE all ke/atom
compute PE all pe/atom
compute ST all stress/atom NULL virial
compute heatflux all heat/flux KE PE ST
fix f3 all ordern thermalconductivity 5 50000 c_heatflux nb 10 nbe 20

# computing the RDF for all group pairs
compute rdfs all rdf/ext Nbin 2000 Nwrite 1000
fix f4 all ave/time 1 1 1000 c_rdfs

dump trjectory all xyz 100000 movie.xyz
dump_modify trjectory element Ow H K Cl

run 100000000
PPPM initialization ...
  extracting TIP4P info from pair style
  G vector (1/distance) = 0.3122
  grid = 25 25 25
  stencil order = 5
  estimated absolute RMS force accuracy = 0.00333368
  estimated relative force accuracy = 1.00393e-05
  3d grid and FFT values/proc = 2156 200
Step Density Temp Press TotEng
0    1.0805415     308.8324    390.44435   -7300.4341
Averages over the last 501 of 1001 rows, steps 50000000 to 100000000:
Density Temp Press TotEng
1.08054 298.259 -4.86403 -7320.24
Loop time of 95713.4 on 128 procs for 100000000 steps with 1705 atoms

quit
