LAMMPS (22 Aug 2018)
####################################################
# Transport properties of KCl in water
#  at 298 K and 1 atm.
#################### SETTING UP ####################
units real
dimension 3
newton on
boundary p p p
atom_style full

#################### VARIABLES ####################
variable Temp equal 298       # Temperature in K
variable Pres equal 1.0       # Pressure in atm.

variable RandomSeed equal 200 # The random seed for velocity
variable tstep equal 2.0      # 2fs
variable Ninptpre equal 10000 # Pre-initialize the NPT ensemble (very small timesteps)
variable Ninpt equal 5000000    # Initialize the NPT ensemble
variable Npnpt equal 5000000  # Production in the NPT ensemble (volume)
variable Ninvtpre equal 10000 # Pre-initialize the NVT ensemble (very small timesteps)
variable Ninvt equal 100000   # Initialize the NVT ensemble
variable Npnvt equal 100000   # Production in the NVT ensemble (energy)
variable Nrun equal 100000000   # production in the NVE ensemble
variable Nf equal 10000       # Nfreq (fix ave/time and thermo)
variable Ne equal  10         # Nevery (fix ave/time)
variable Nr equal 10000/10
variable NBR equal 5000000/50
variable Nd equal 100000/10

variable nb equal 10          # Number of blocks (fix ordern)
variable nbe equal 20         # Number of block elements (fix ordern)
variable Nvisc equal 5        # Nevery for viscosity (fix ordern: sample data at (Nvisc*2))
variable Ncond equal 5        # Nevery for Tconductivity (fix ordern: sample data at (Ncond*2))
variable Ndiff equal 1000     # Nevery for diffusivity (fix ordern: sample data at (Ndiff))
variable Nwrit equal 100000   # Nwrite for transport properties (fix ordern: write every (Nwrit))

variable Nrdfe equal 100      # Nevery for RDF (fix ave/time)
variable Nrdfw equal 1000     # Nwrite for RDF (compute rdf/ext: write every (Nrdfw*Nrdfe))
variable binnum equal 2000    # Number of bins for RDF

#################### ATOM DEFINITION and FORCEFIELD ####################
read_data ./data.lmp                     # read the positions
  orthogonal box = (0 0 0) to (33.2616 33.2616 33.2616)
  reading atoms ...
  3108 atoms
  scanning bonds ...
  scanning angles ...
  reading bonds ...
  2000 bonds
  reading angles ...
  1000 angles
include ./forcefield.data                  # read the force field
#--------INTERMOLECULAR POTENTIAL -------------------#
# ---------------Developed for NaCl in water (tip4p/2005) system-----

mass 1 15.9994 # Ow
mass 2 1.00794 # Hw
mass 3 39.0983 # K
mass 4 35.4527 # Cl

pair_style lj/cut/tip4p/long 1 2 1 1 0.1546 10.0

kspace_style pppm/tip4p 1.0e-5
pair_modify tail yes # ATC i

#-----------------Combinations----------------------------
# atomtype atomtype epsilon sigma

pair_coeff 1 1 0.1851 3.1589     # Ow-Ow
pair_coeff 1 2 0.0000 0.0000     # Ow-Hw
pair_coeff 1 3 0.3347 2.89540     # Ow-K
pair_coeff 1 4 0.0148 4.07631     # Ow-Cl

pair_coeff 2 2 0.0000 0.0000     # Hw-Hw
pair_coeff 2 3 0.0000 0.0000     # Hw-K
pair_coeff 2 4 0.0000 0.0000     # Hw-Cl

pair_coeff 3 3 0.4746 2.30140     # K-K
pair_coeff 3 4 0.3346 3.41700     # K-Cl

pair_coeff 4 4 0.0184 4.69906     # Cl-Cl

bond_style  harmonic
bond_coeff 1 1000 0.9572          # Ow-Hw

angle_style harmonic
angle_coeff 1 100 104.52          # H-O-H

#dihedral_style none
#improper_style none

set type 1 charge -1.1128        # O
  1000 settings made for charge
set type 2 charge +0.5564        # OH
  2000 settings made for charge
set type 3 charge +0.7500        # K
  54 settings made for charge
set type 4 charge -0.7500        # Cl
  54 settings made for charge

#################### INITIALIZATION ####################
# groups for the central atoms of water (O)
group wat type 1      # The Oxygen of WATER molecules
1000 atoms in group wat
group K type 3
54 atoms in group K
group Cl type 4
54 atoms in group Cl

# neigbor lists
neighbor 2.0 bin
neigh_modify every 1 delay 0 check yes

# velocity-Verlet integrator
run_style verlet

# minimizing the system using the conjugate gradient method
min_style cg
min_modify dmax 0.05
minimize 1.0e-6 1.0e-6 1000 10000
PPPM initialization ...
  extracting TIP4P info from pair style
  G vector (1/distance) = 0.31234
  grid = 32 32 32
  stencil order = 5
  estimated absolute RMS force accuracy = 0.00308625
  estimated relative force accuracy = 9.29416e-06
  3d grid and FFT values/proc = 2475 256
  update every 1 steps, delay 0 steps, check yes
Step Temp E_pair E_mol TotEng Press
0            0   -565.39678 3.3187846e-05   -565.39674    21269.409
Loop time of 1.28936 on 128 procs for 874 steps with 3108 atoms

Minimization stats:
  Stopping criterion = energy tolerance
  Energy initial, next-to-last, final =
  Force two-norm initial, final = 1453.42 9.20238
  Force max component initial, final = 210.658 2.72238
  Final line search alpha, max atom move = 0.0105153 0.0286266
  Iterations, force evaluations = 874 1564

reset_timestep 0

# initializing velocities
velocity all create 298 200

# rate of writing thermal properties to the log file
thermo 10000

#################### 1) Initialize the NPT ensemble ####################
# applying the shake algorithm for rigid molecules and the NPT solver
fix constrain all shake 1.0e-6 1000 0 b 1 a 1
fix integrate all npt temp 298 298 10.0 iso 1 1 100.0

# Initializing the whole system with very small timesteps in the NPT ensemble
timestep 0.001
run 10000
PPPM initialization ...
  extracting TIP4P info from pair style
  G vector (1/distance) = 0.31234
  grid = 32 32 32
  stencil order = 5
  estimated absolute RMS force accuracy = 0.00308625
  estimated relative force accuracy = 9.29416e-06
  3d grid and FFT values/proc = 2475 256
Step Temp E_pair E_mol TotEng Press Volume
0    439.43332   -19468.359            0   -16708.469    -711122.5    36798.407
Loop time of 9.57307 on 128 procs for 10000 steps with 3108 atoms

timestep 0.01
run 10000
PPPM initialization ...
  extracting TIP4P info from pair style
  G vector (1/distance) = 0.312445
  grid = 32 32 32
  stencil order = 5
  estimated absolute RMS force accuracy = 0.00307275
  estimated relative force accuracy = 9.25349e-06
  3d grid and FFT values/proc = 2475 256
Step Temp E_pair E_mol TotEng Press Volume
10000    171.91853    -17858.49            0   -16778.744   -54682.481    36635.545
Loop time of 9.87446 on 128 procs for 10000 steps with 3108 atoms

timestep 0.1
run 10000
PPPM initialization ...
  extracting TIP4P info from pair style
  G vector (1/distance) = 0.312053
  grid = 32 32 32
  stencil order = 5
  estimated absolute RMS force accuracy = 0.00312335
  estimated relative force accuracy = 9.40589e-06
  3d grid and FFT values/proc = 2475 256
Step Temp E_pair E_mol TotEng Press Volume
20000    294.24263   -16631.963            0   -14783.952    -13062.31    37245.685
Loop time of 9.68309 on 128 procs for 10000 steps with 3108 atoms

timestep 0.2
run 10000
PPPM initialization ...
  extracting TIP4P info from pair style
  G vector (1/distance) = 0.31048
  grid = 30 30 30
  stencil order = 5
  estimated absolute RMS force accuracy = 0.00367336
  estimated relative force accuracy = 1.10622e-05
  3d grid and FFT values/proc = 2475 256
Step Temp E_pair E_mol TotEng Press Volume
30000    300.15805   -16771.671            0   -14886.508    5561.2646    32787.344
Loop time of 9.90022 on 128 procs for 10000 steps with 3108 atoms

timestep 0.5
run 10000
PPPM initialization ...
  extracting TIP4P info from pair style
  G vector (1/distance) = 0.310408
  grid = 30 30 30
  stencil order = 5
  estimated absolute RMS force accuracy = 0.00368422
  estimated relative force accuracy = 1.10949e-05
  3d grid and FFT values/proc = 2475 256
Step Temp E_pair E_mol TotEng Press Volume
40000    300.26807   -16838.231            0   -14952.378   -319.12736    32884.907
Loop time of 9.63788 on 128 procs for 10000 steps with 3108 atoms

reset_timestep 0

# continuing the initialization with the final value of timestep
unfix integrate
fix integrate all npt temp 298 298 100.0 iso 1 1 1000.0

timestep 2
run 5000000
PPPM initialization ...
  extracting TIP4P info from pair style
  G vector (1/distance) = 0.310718
  grid = 30 30 30
  stencil order = 5
  estimated absolute RMS force accuracy = 0.00363737
  estimated relative force accuracy = 1.09538e-05
  3d grid and FFT values/proc = 2475 256
Step Temp E_pair E_mol TotEng Press Volume
0     303.5743   -16877.917            0   -14971.298   -101.16745    32463.763
Averages over the last 251 of 501 rows, steps 2500000 to 5000000:
Temp E_pair E_mol TotEng Press Volume
298.145 -16855.8 0 -14983.3 -8.75628 32742.5
Loop time of 5145.79 on 128 procs for 5000000 steps with 3108 atoms

reset_timestep 0

#################### 2) Obtaining average volume in NPT ######################
# Getting the average volume of the system
variable Volume equal vol
fix VoluAve all ave/time 1 5000000 5000000 v_Volume file volume.dat

# Thermo style for outputing system properties to the log file
thermo_style custom density
thermo_modify flush yes

variable Dens equal density
fix DensAve all ave/time 1 100000 100000 v_Dens file density.dat

run 5000000
PPPM initialization ...
  extracting TIP4P info from pair style
  G vector (1/distance) = 0.31069
  grid = 30 30 30
  stencil order = 5
  estimated absolute RMS force accuracy = 0.00364161
  estimated relative force accuracy = 1.09666e-05
  3d grid and FFT values/proc = 2475 256
Density
   1.1260867
   1.1311457
   1.1112827
   1.1262685
   1.1209058
   1.1131432
    1.105987
    1.125724
   1.1215234
   1.1125401
   1.1078571
   1.1206592
   1.1186874
   1.1244627
   1.1037516
   1.1292069
    1.126425
   1.1228995
   1.1164094
   1.1135431
   1.1248282
   1.1120834
   1.1173428
   1.1042817
   1.1087608
   1.1144091
   1.1139739
   1.1137621
   1.1283697
   1.1375494
   1.1006028
   1.1036409
   1.1237066
   1.1209849
   1.1131431
   1.1192956
   1.1228278
   1.1130492
   1.1314681
   1.1204376
   1.1270216
   1.1194426
   1.1197271
   1.1204484
   1.1217188
   1.1103039
   1.1154263
   1.1157152
   1.1136144
   1.1181077
   1.1309557
   1.1205032
   1.1194952
   1.1267064
   1.0976963
   1.1065652
   1.1252745
    1.098112
   1.1095732
   1.1034564
   1.1168389
   1.1046767
    1.127979
   1.1211707
    1.113237
   1.1023513
   1.1084285
   1.1188126
   1.1206074
   1.1041641
   1.1208427
    1.132352
   1.1199951
   1.1195513
   1.1167936
   1.1085812
   1.0913913
   1.1259773
   1.1148743
   1.1163248
   1.1228992
   1.1248611
   1.1047088
   1.0944386
   1.1165846
   1.1189869
   1.1293759
   1.1135111
    1.121397
   1.1104715
   1.1093204
   1.1214666
   1.1237775
   1.1255439
   1.1141637
   1.1102683
   1.1248491
   1.1244858
   1.1168981
     1.10502
   1.1118863
   1.1232285
   1.1121087
   1.1140545
   1.1117299
   1.1111795
   1.1035428
   1.1011988
   1.1198586
   1.1112157
   1.1084265
    1.112104
   1.1144814
   1.1275436
   1.1209167
   1.1006299
   1.1139016
   1.1117917
   1.1218694
   1.1222489
   1.1120287
   1.1320109
   1.1313778
   1.1277207
   1.1206826
    1.110319
   1.1082827
   1.1332693
   1.1044509
   1.1284966
   1.1267329
   1.1166913
   1.1096942
    1.128182
   1.1261642
   1.1110233
   1.1114186
   1.1017381
    1.111531
   1.1132258
   1.1208509
   1.1125339
   1.1233788
    1.129142
   1.1117154
     1.10653
   1.1239901
   1.1080627
   1.1019909
   1.1144688
   1.1085022
   1.0997553
   1.1143129
    1.118235
   1.1160321
   1.1052702
   1.1005149
   1.1149155
   1.1030613
   1.1364766
   1.1151215
   1.1248401
   1.1135453
   1.1155043
   1.1261443
   1.1263694
    1.106978
   1.1031852
   1.1239899
   1.1163981
   1.1386233
   1.1206167
   1.1134129
   1.1193743
   1.1230207
   1.1191435
   1.1134011
   1.1217099
   1.1127589
   1.1337612
   1.1118556
    1.123439
   1.1252137
   1.1149499
   1.1130261
   1.1111959
   1.1153412
   1.1225752
   1.1189141
   1.0992376
   1.1241374
   1.1057679
   1.1150544
   1.1287749
   1.1203155
   1.1162165
   1.1061548
   1.1151266
   1.1132922
   1.1213069
   1.1269951
   1.1030133
   1.1271785
   1.1276719
   1.1157075
   1.1097823
   1.1076471
   1.1074287
   1.1308626
    1.129115
   1.1159416
   1.1294741
   1.1319102
   1.1301341
   1.1016906
   1.1007725
   1.1241755
   1.1241976
   1.1283723
   1.1217784
   1.1152017
   1.1268866
   1.1262269
   1.1096503
   1.1319914
   1.1096179
   1.1107792
   1.1305958
   1.1164443
    1.101758
   1.1296317
   1.1224235
   1.1259488
   1.1124281
   1.1231923
   1.1191597
   1.1230043
   1.1181894
    1.121535
   1.1064052
   1.1165778
   1.1239452
   1.1295655
    1.122446
   1.1212477
   1.1240713
   1.1154848
   1.1213465
   1.1250558
   1.1046112
   1.1238173
   1.1104714
   1.1070147
   1.1103432
   1.1186545
   1.1323139
   1.1213013
   1.1220426
   1.1196898
   1.1117378
    1.131969
   1.1256082
   1.1309155
   1.1148418
   1.1219633
    1.097882
   1.1222401
   1.1110583
   1.1097621
   1.1213979
   1.1135194
   1.1161657
   1.1132147
   1.1178924
   1.1380349
    1.118096
   1.1031959
   1.1187549
   1.1211723
   1.1207854
   1.1235364
   1.1156958
   1.1068902
   1.1224806
   1.1113614
   1.1140449
   1.1052055
   1.1180199
   1.1400933
   1.1218262
   1.1171586
   1.1178528
   1.1316658
   1.1122211
   1.1335803
   1.1331085
   1.1156859
   1.1248719
   1.1165404
    1.106873
   1.0960544
   1.1134464
   1.0931353
   1.1008284
   1.1291877
   1.1166462
   1.1107865
   1.1169184
    1.128069
   1.1176065
   1.1188249
   1.1363587
   1.1000283
   1.1111185
   1.1245631
   1.1106352
    1.123648
   1.1247747
   1.0940223
    1.112467
     1.11713
   1.1114706
   1.1188751
   1.1113967
   1.1155012
   1.1185551
   1.1264498
    1.132771
   1.1118984
   1.1165099
   1.1122103
   1.1148018
   1.1270183
   1.1175759
   1.1183631
   1.1276411
   1.1118586
   1.1106532
   1.1140413
   1.1259104
   1.1278495
   1.0963429
   1.1148408
   1.1237654
   1.1208003
    1.112216
    1.105339
   1.1041793
   1.1077034
   1.1169896
   1.1329269
   1.1072888
   1.1100508
   1.1209851
   1.1056849
   1.1117198
   1.1178621
   1.1121454
   1.1245061
   1.1135642
   1.1141145
   1.1264542
    1.110167
   1.1195819
    1.134402
   1.1261852
   1.1303429
   1.1044659
   1.1225329
   1.1195758
   1.1244595
    1.118182
    1.127671
   1.1151535
   1.1251406
   1.1227144
   1.1125783
   1.1235705
   1.1179129
   1.1151167
    1.131375
   1.1070596
   1.1170751
   1.1404826
   1.1177459
   1.1291409
   1.1160121
   1.1211024
   1.1162016
   1.1197906
   1.0954625
   1.1201227
   1.1114164
   1.1244857
   1.1007564
   1.1138998
   1.1038141
   1.1149073
   1.1267864
   1.1281349
   1.1143783
   1.1097469
   1.1262492
   1.1331869
   1.1125219
    1.122701
   1.1126596
   1.1243144
   1.1198852
   1.1222476
   1.1188673
   1.1059331
   1.1054266
   1.1158086
   1.1326587
   1.1221351
    1.120406
   1.1154733
   1.1139034
   1.1210171
   1.1130449
   1.0940711
   1.1120759
    1.109553
   1.1245362
   1.1071038
   1.1234765
   1.1248439
   1.1186589
   1.1197531
   1.1303226
   1.1160353
   1.1089375
   1.1125988
   1.1182399
   1.1115843
   1.1178197
   1.1241257
   1.1183328
   1.1149791
   1.1370775
   1.1253734
   1.1173278
   1.1168861
   1.1209898
   1.1149853
   1.1346919
   1.1192407
   1.1191756
   1.1109438
   1.1038396
      1.1109
   1.1160613
   1.1188037
   1.1150369
   1.1300496
   1.1137871
   1.1211307
   1.1178092
   1.1119518
    1.110473
   1.1236182
   1.1199798
   1.1073247
    1.116797
   1.1180702
    1.122942
    1.109364
   1.1116084
   1.1234821
   1.1117548
   1.1159664
   1.1058914
   1.1348922
   1.1201382
   1.1253753
   1.1278611
    1.125089
   1.1172367
   1.1255957
   1.1092762
   1.1226115
   1.1143008
   1.1125715
   1.1145179
   1.1144998
   1.1319272
   1.1110693
   1.1146765
   1.1128743
   1.0974252
   1.1209544
   1.1155171
   1.1315789
   1.1317872
   1.1109983
   1.1165366
   1.1111647
    1.113055
   1.1087303
   1.1147723
Loop time of 5224.9 on 128 procs for 5000000 steps with 3108 atoms

reset_timestep 0

#################### 3) Initializing the NVT ensemble ####################
# scaling the size of the system to the average volume
variable sidesize equal (f_VoluAve^(1.0/3.0))    # get the volume
variable xlow equal xlo
variable ylow equal ylo
variable zlow equal zlo
variable xhig equal (xlo+31.9946639173887)
variable yhig equal (ylo+31.9946639173887)
variable zhig equal (zlo+31.9946639173887)
change_box all x final 0.62041562075736 32.6150795381461 y final 0.62041562075736 32.6150795381461 z final 0.62041562075736 32.6150795381461
  orthogonal box = (0.620416 0.620416 0.620416) to (32.6151 32.6412 32.6412)
  orthogonal box = (0.620416 0.620416 0.620416) to (32.6151 32.6151 32.6412)
  orthogonal box = (0.620416 0.620416 0.620416) to (32.6151 32.6151 32.6151)
unfix DensAve
unfix VoluAve

# changing the ensemble to NVT
unfix integrate
fix integrate all nvt temp 298 298 100.0

# Initializing the whole system with very small timesteps in the NVT ensemble
timestep 0.001
run 10000
PPPM initialization ...
  extracting TIP4P info from pair style
  G vector (1/distance) = 0.310506
  grid = 30 30 30
  stencil order = 5
  estimated absolute RMS force accuracy = 0.00366939
  estimated relative force accuracy = 1.10503e-05
  3d grid and FFT values/proc = 2475 256
Density
   1.1175021
   1.1175021
Loop time of 7.54448 on 128 procs for 10000 steps with 3108 atoms

timestep 0.01
run 10000
PPPM initialization ...
  extracting TIP4P info from pair style
  G vector (1/distance) = 0.310506
  grid = 30 30 30
  stencil order = 5
  estimated absolute RMS force accuracy = 0.00366939
  estimated relative force accuracy = 1.10503e-05
  3d grid and FFT values/proc = 2475 256
Density
   1.1175021
   1.1175021
Loop time of 7.66342 on 128 procs for 10000 steps with 3108 atoms

timestep 0.1
run 10000
PPPM initialization ...
  extracting TIP4P info from pair style
  G vector (1/distance) = 0.310506
  grid = 30 30 30
  stencil order = 5
  estimated absolute RMS force accuracy = 0.00366939
  estimated relative force accuracy = 1.10503e-05
  3d grid and FFT values/proc = 2475 256
Density
   1.1175021
   1.1175021
Loop time of 8.02217 on 128 procs for 10000 steps with 3108 atoms

timestep 0.2
run 10000
PPPM initialization ...
  extracting TIP4P info from pair style
  G vector (1/distance) = 0.310506
  grid = 30 30 30
  stencil order = 5
  estimated absolute RMS force accuracy = 0.00366939
  estimated relative force accuracy = 1.10503e-05
  3d grid and FFT values/proc = 2475 256
Density
   1.1175021
   1.1175021
Loop time of 7.75962 on 128 procs for 10000 steps with 3108 atoms

timestep 0.5
run 10000
PPPM initialization ...
  extracting TIP4P info from pair style
  G vector (1/distance) = 0.310506
  grid = 30 30 30
  stencil order = 5
  estimated absolute RMS force accuracy = 0.00366939
  estimated relative force accuracy = 1.10503e-05
  3d grid and FFT values/proc = 2475 256
Density
   1.1175021
   1.1175021
Loop time of 8.06023 on 128 procs for 10000 steps with 3108 atoms

reset_timestep 0

# continuing the initialization with the final value of timestep
timestep 2
run 100000
PPPM initialization ...
  extracting TIP4P info from pair style
  G vector (1/distance) = 0.310506
  grid = 30 30 30
  stencil order = 5
  estimated absolute RMS force accuracy = 0.00366939
  estimated relative force accuracy = 1.10503e-05
  3d grid and FFT values/proc = 2475 256
Density
   1.1175021
   1.1175021
   1.1175021
   1.1175021
   1.1175021
   1.1175021
   1.1175021
   1.1175021
   1.1175021
   1.1175021
   1.1175021
Loop time of 82.4404 on 128 procs for 100000 steps with 3108 atoms

reset_timestep 0

#################### 4) Obtaining average total energy in NVT #####################
thermo_style custom temp pe ke etotal
thermo_modify flush yes

variable T1 equal temp
variable TE1 equal etotal
variable KE1 equal ke
variable PE1 equal pe
fix Tave1 all ave/time 100000 1 100000 v_T1
fix TEave1 all ave/time 1 100000 100000 v_TE1
fix KEave1 all ave/time 100000 1 100000 v_KE1
fix PEave1 all ave/time 100000 1 100000 v_PE1

dump trjectory all xyz 10000 movie.xyz
dump_modify trjectory element O H K Cl

run 100000
PPPM initialization ...
  extracting TIP4P info from pair style
  G vector (1/distance) = 0.310506
  grid = 30 30 30
  stencil order = 5
  estimated absolute RMS force accuracy = 0.00366939
  estimated relative force accuracy = 1.10503e-05
  3d grid and FFT values/proc = 2475 256
Temp PotEng KinEng TotEng
Loop time of 91.6948 on 128 procs for 100000 steps with 3108 atoms

reset_timestep 0

undump trjectory

#################### 3) Simulating transport properties in NVT ensmeble ######################

unfix Tave1
unfix TEave1
unfix KEave1
unfix PEave1
variable T1 delete
variable TE1 delete
variable KE1 delete
variable PE1 delete

# computing average total energy, pontential energy, temperature, and pressure over time
variable TotEn equal etotal
fix TEAve all ave/time 10 1000 10000 v_TotEn file TotalE.dat

variable PotEn equal pe
fix PEAve all ave/time 10 1000 10000 v_PotEn file PotenE.dat

compute T all temp
fix TempAve all ave/time 10 1000 10000 c_T file temperature.dat

compute P all pressure T
fix PressAve all ave/time 10 1000 10000 c_P file pressure.dat

# computing self-diffusion and Onsager coefficients using the OCTP plugin
compute positions all position
fix f3 all ordern diffusivity 1000 100000 c_positions nb 10 nbe 20 file diffself.dat diffonsag.dat

# computing shear and bulk viscosities  using the OCTP plugin
fix f1 all ordern viscosity 5 100000 c_P nb 10 nbe 20 file viscosity.dat

# computing the RDF for all group pairs
compute rdfs all rdf/ext Nbin 2000 Nwrite 1000 file rdf.dat
fix f4 all ave/time 1 1 100 c_rdfs

# Thermo style for outputing system properties to the log file
thermo_style custom step temp f_TempAve press f_PressAve pe ke etotal
thermo_modify flush yes

run 100000000
PPPM initialization ...
  extracting TIP4P info from pair style
  G vector (1/distance) = 0.310506
  grid = 30 30 30
  stencil order = 5
  estimated absolute RMS force accuracy = 0.00366939
  estimated relative force accuracy = 1.10503e-05
  3d grid and FFT values/proc = 2475 256
Step Temp f_TempAve Press f_PressAve PotEng KinEng TotEng
0    294.14521            0   -333.70468            0   -16853.568    1847.3986    -15006.17
Averages over the last 5001 of 10001 rows, steps 50000000 to 100000000:
Temp f_TempAve Press f_PressAve PotEng KinEng TotEng
297.91 298.001 -17.6795 -4.46804 -16857.2 1871.04 -14986.2
Loop time of 91811.6 on 128 procs for 100000000 steps with 3108 atoms

quit
