LAMMPS (16 Mar 2018)
####################################################
# Preprocessing Li2SO4 in water
#################### SETTING UP ####################
units real
dimension 3
newton on
boundary p p p
atom_style full

#################### VARIABLES ####################
variable Temp equal 298.15    # Temperature in K
variable Pres equal 1    # Pressure in atm.

variable RandomSeed equal 22 # The random seed for velocity
variable tstep equal 2 # timestep in fs

#################### NPT ####################
variable Ninptpre equal 5000 # Pre-initialize the NPT ensemble (very small timesteps)
variable Ninpt equal 5000000  # Initialize the NPT ensemble
variable Npnpt equal 5000000  # Production in the NPT ensemble (volume)

#################### NVT ####################
variable Ninvtpre equal 5000  # Pre-initialize the NVT ensemble (very small timesteps)
variable Ninvt equal 2000000  # Initialize the NVT ensemble 2.5Mstep
variable Nrun3 equal 50000000  # production in the NVT ensemble (Transport properties)

variable Nf equal 100000      # Nfreq (fix ave/time and thermo)
variable Ne equal  1          # Nevery (fix ave/time)
variable Nr equal 100000/1
variable Nd equal 100000
variable NBR equal 5000000/100

variable nb equal 10          # Number of blocks (fix ordern)
variable nbe equal 20         # Number of block elements (fix ordern)
variable Nvisc equal 5        # Nevery for viscosity (fix ordern: sample data at (Nvisc*2))
variable Ncond equal 5        # Nevery for Tconductivity (fix ordern: sample data at (Ncond*2))
variable Ndiff equal 500     # Nevery for diffusivity (fix ordern: sample data at (Ndiff))
variable Nwrit equal 50000   # Nwrite for transport properties (fix ordern: write every (Nwrit))

variable Nrdfe equal 1000     # Nevery for RDF (fix ave/time)
variable Nrdfw equal 1000     # Nwrite for RDF (compute rdf/ext: write every (Nrdfw*Nrdfe))
variable binnum equal 2000    # Number of bins for RDF

#################### ATOM DEFINITION and FORCEFIELD ####################
read_data ./data.lmp                     # read the positions
  orthogonal box = (0 0 0) to (32.5667 32.5667 32.5667)
  reading atoms ...
  3144 atoms
  scanning bonds ...
  scanning angles ...
  reading bonds ...
  2000 bonds
  reading angles ...
  1000 angles
include ./forcefield.data                # read the force field
#--------INTERMOLECULAR POTENTIAL -------------------#
# --------Developed for MadridT KCl + TIP4P/2005-----#

mass 1 15.9994	# Ow
mass 2 1.008	# Hw
mass 3 39.0983	# K
mass 4 35.453	# Cl

pair_style lj/cut/tip4p/long 1 2 1 1 0.1546 10.0
kspace_style pppm/tip4p 1.0e-5
pair_modify mix arithmetic tail yes # ATC and Lorentz-Berthelot combining rules

#-----------------Combinations----------------------------
# atomtype atomtype epsilon sigma

pair_coeff 1 1 0.185207 3.15890    # Ow-Ow
pair_coeff 1 2 0.000000 0.00000    # Ow-Hw
pair_coeff 1 3 0.334711 2.89540    # Ow-K
pair_coeff 1 4 0.014814 4.07631    # Ow-Cl

pair_coeff 2 2 0.000000 0.00000    # Hw-Hw
pair_coeff 2 3 0.000000 0.00000    # Hw-K
pair_coeff 2 4 0.000000 0.00000    # Hw-Cl

pair_coeff 3 3 0.474603 2.30140    # K-K
pair_coeff 3 4 0.334608 3.41700    # K-Cl

pair_coeff 4 4 0.018385 4.69906    # Cl-Cl

bond_style  harmonic
bond_coeff 1 2000 0.9572           # Ow-Hw

angle_style harmonic
angle_coeff 1 200 104.52           # H-Ow-H

#dihedral_style none
#improper_style none

set type 1 charge -1.1128          # O
  1000 settings made for charge
set type 2 charge +0.5564          # OH
  2000 settings made for charge
set type 3 charge +0.7500          # K
  72 settings made for charge
set type 4 charge -0.7500          # Cl
  72 settings made for charge

#################### INITIALIZATION ####################
group wat type 1		# O water
1000 atoms in group wat
group K type 3			# Potasium ion
72 atoms in group K
group Cl type 4			# Chlorine ion
72 atoms in group Cl

# neigbor lists
neighbor 2.0 bin
neigh_modify every 1 delay 0 check yes

# velocity-Verlet integrator
run_style verlet

# initializing velocities
velocity all create 298.15 22

# rate of writing thermal properties to the log file
thermo_style custom step density temp press etotal
thermo_modify flush yes
thermo 100000

#################### 2) Initialize the NPT ensemble ####################
######### Go to the correct temperature now ant initiate that ##########
fix constrain all shake 1.0e-6 1000 0 b 1 a 1
fix integrate all npt temp 298.15 298.15 10.0 iso 1 1 100.0

# Initializing the whole system with very small timesteps in the NPT ensemble
timestep 0.001
run 5000
PPPM initialization ...
  extracting TIP4P info from pair style
  G vector (1/distance) = 0.309225
  grid = 30 30 30
  stencil order = 5
  estimated absolute RMS force accuracy = 0.00388684
  estimated relative force accuracy = 1.17051e-05
  3d grid and FFT values/proc = 2475 256
  update every 1 steps, delay 0 steps, check yes
Step Density Temp Press TotEng
0    1.1241608    437.27739     424486.5    8639.8163
Loop time of 4.45965 on 128 procs for 5000 steps with 3144 atoms

timestep 0.01
run 5000
PPPM initialization ...
  extracting TIP4P info from pair style
  G vector (1/distance) = 0.312644
  grid = 32 32 32
  stencil order = 5
  estimated absolute RMS force accuracy = 0.00306185
  estimated relative force accuracy = 9.22067e-06
  3d grid and FFT values/proc = 2475 256
Step Density Temp Press TotEng
5000    1.0687732     769.3333    2196537.1    5989.7625
Loop time of 4.36247 on 128 procs for 5000 steps with 3144 atoms

timestep 0.1
run 5000
PPPM initialization ...
  extracting TIP4P info from pair style
  G vector (1/distance) = 0.310719
  grid = 32 32 32
  stencil order = 5
  estimated absolute RMS force accuracy = 0.00331684
  estimated relative force accuracy = 9.98858e-06
  3d grid and FFT values/proc = 2475 256
Step Density Temp Press TotEng
10000    0.9858156    382.93207   -44621.637   -11026.038
Loop time of 4.88764 on 128 procs for 5000 steps with 3144 atoms

timestep 0.2
run 5000
PPPM initialization ...
  extracting TIP4P info from pair style
  G vector (1/distance) = 0.310097
  grid = 30 30 30
  stencil order = 5
  estimated absolute RMS force accuracy = 0.00374971
  estimated relative force accuracy = 1.12921e-05
  3d grid and FFT values/proc = 2475 256
Step Density Temp Press TotEng
15000    1.1655284    302.10795   -657.65335   -16412.231
Loop time of 4.59851 on 128 procs for 5000 steps with 3144 atoms

timestep 0.5
run 5000
PPPM initialization ...
  extracting TIP4P info from pair style
  G vector (1/distance) = 0.310059
  grid = 30 30 30
  stencil order = 5
  estimated absolute RMS force accuracy = 0.00375558
  estimated relative force accuracy = 1.13098e-05
  3d grid and FFT values/proc = 2475 256
Step Density Temp Press TotEng
20000    1.1636947    308.62952    1295.4531     -16523.3
Loop time of 4.6147 on 128 procs for 5000 steps with 3144 atoms

reset_timestep 0

# continuing the initialization with the final value of timestep
unfix integrate
fix integrate all npt temp 298.15 298.15 100.0 iso 1 1 1000.0

timestep 2
run 5000000
PPPM initialization ...
  extracting TIP4P info from pair style
  G vector (1/distance) = 0.309744
  grid = 30 30 30
  stencil order = 5
  estimated absolute RMS force accuracy = 0.00380466
  estimated relative force accuracy = 1.14576e-05
  3d grid and FFT values/proc = 2475 256
Step Density Temp Press TotEng
0    1.1485877    300.18802   -32.770874   -16783.896
Averages over the last 26 of 51 rows, steps 2500000 to 5000000:
Density Temp Press TotEng
1.1538 298.002 -4.43789 -16774.5
Loop time of 5081.89 on 128 procs for 5000000 steps with 3144 atoms

reset_timestep 0

#################### 3) Obtaining average volume in NPT ######################
# Creating restart files
restart 100000 1.restart 2.restart

# Getting the average volume of the system
variable Volume equal vol
fix VoluAve all ave/time 1 5000000 5000000 v_Volume file volume.dat

variable Dens equal density
fix DensAve all ave/time 1 50000 50000 v_Dens file density.dat

compute T1 all temp
fix TempAve1 all ave/time 1 50000 50000 c_T1 file temperatureNPT.dat

compute P1 all pressure T1
fix PressAve1 all ave/time 1 50000 50000 c_P1 file pressureNPT.dat

run 5000000
PPPM initialization ...
  extracting TIP4P info from pair style
  G vector (1/distance) = 0.309879
  grid = 30 30 30
  stencil order = 5
  estimated absolute RMS force accuracy = 0.00378351
  estimated relative force accuracy = 1.13939e-05
  3d grid and FFT values/proc = 2475 256
Step Density Temp Press TotEng
0    1.1550496    300.34535   -296.87547   -16737.457
Averages over the last 26 of 51 rows, steps 2500000 to 5000000:
Density Temp Press TotEng
1.15259 297.932 -89.588 -16769.3
Loop time of 5176.9 on 128 procs for 5000000 steps with 3144 atoms

#################### 4) Initializing the NVT ensemble ####################
# scaling the size of the system to the average volume
variable sidesize equal (f_VoluAve^(1.0/3.0))    # get the volume
variable xlow equal xlo
variable ylow equal ylo
variable zlow equal zlo
variable xhig equal (xlo+32.3061058458414)
variable yhig equal (ylo+32.3061058458414)
variable zhig equal (zlo+32.3061058458414)
change_box all x final 0.164011240070991 32.4701170859124 y final 0.164011240070991 32.4701170859124 z final 0.164011240070991 32.4701170859124
  orthogonal box = (0.164011 0.164011 0.164011) to (32.4701 32.4027 32.4027)
  orthogonal box = (0.164011 0.164011 0.164011) to (32.4701 32.4701 32.4027)
  orthogonal box = (0.164011 0.164011 0.164011) to (32.4701 32.4701 32.4701)
unfix DensAve
unfix VoluAve
unfix TempAve1
unfix PressAve1

# changing the ensemble to NVT
unfix integrate
fix integrate all nvt temp 298.15 298.15 10.0

timestep 0.001
run 5000
PPPM initialization ...
  extracting TIP4P info from pair style
  G vector (1/distance) = 0.309807
  grid = 30 30 30
  stencil order = 5
  estimated absolute RMS force accuracy = 0.00379481
  estimated relative force accuracy = 1.1428e-05
  3d grid and FFT values/proc = 2475 256
Step Density Temp Press TotEng
5000000    1.1515882    295.01732   -32218.546   -16910.317
Loop time of 3.6259 on 128 procs for 5000 steps with 3144 atoms

timestep 0.01
run 5000
PPPM initialization ...
  extracting TIP4P info from pair style
  G vector (1/distance) = 0.309807
  grid = 30 30 30
  stencil order = 5
  estimated absolute RMS force accuracy = 0.00379481
  estimated relative force accuracy = 1.1428e-05
  3d grid and FFT values/proc = 2475 256
Step Density Temp Press TotEng
5005000    1.1515882    297.07007   -817.59166    -16834.79
Loop time of 3.65172 on 128 procs for 5000 steps with 3144 atoms

timestep 0.1
run 5000
PPPM initialization ...
  extracting TIP4P info from pair style
  G vector (1/distance) = 0.309807
  grid = 30 30 30
  stencil order = 5
  estimated absolute RMS force accuracy = 0.00379481
  estimated relative force accuracy = 1.1428e-05
  3d grid and FFT values/proc = 2475 256
Step Density Temp Press TotEng
5010000    1.1515882    288.77332   -547.73109    -16876.13
Loop time of 3.6991 on 128 procs for 5000 steps with 3144 atoms

timestep 0.2
run 5000
PPPM initialization ...
  extracting TIP4P info from pair style
  G vector (1/distance) = 0.309807
  grid = 30 30 30
  stencil order = 5
  estimated absolute RMS force accuracy = 0.00379481
  estimated relative force accuracy = 1.1428e-05
  3d grid and FFT values/proc = 2475 256
Step Density Temp Press TotEng
5015000    1.1515882    302.68381    79.541664    -16738.42
Loop time of 3.74993 on 128 procs for 5000 steps with 3144 atoms

timestep 0.5
run 5000
PPPM initialization ...
  extracting TIP4P info from pair style
  G vector (1/distance) = 0.309807
  grid = 30 30 30
  stencil order = 5
  estimated absolute RMS force accuracy = 0.00379481
  estimated relative force accuracy = 1.1428e-05
  3d grid and FFT values/proc = 2475 256
Step Density Temp Press TotEng
5020000    1.1515882    288.02382    950.90765    -16841.59
Loop time of 4.30373 on 128 procs for 5000 steps with 3144 atoms

unfix integrate
fix integrate all nvt temp 298.15 298.15 100.0
# continuing the initialization with the final value of timestep
timestep 2

run 2000000
PPPM initialization ...
  extracting TIP4P info from pair style
  G vector (1/distance) = 0.309807
  grid = 30 30 30
  stencil order = 5
  estimated absolute RMS force accuracy = 0.00379481
  estimated relative force accuracy = 1.1428e-05
  3d grid and FFT values/proc = 2475 256
Step Density Temp Press TotEng
5025000    1.1515882    294.07413   -79.619509   -16966.283
Averages over the last 11 of 22 rows, steps 6100000 to 7025000:
Density Temp Press TotEng
1.15159 299.184 244.254 -16759
Loop time of 1663.61 on 128 procs for 2000000 steps with 3144 atoms

reset_timestep 0

#################### 2) Production in NVT ensemble #####################
# computing average total energy, pontential energy, temperature, and pressure over time
variable TotEn equal etotal
fix TEAve all ave/time 1 100000 100000 v_TotEn file TotalE.dat

variable PotEn equal pe
fix PEAve all ave/time 1 100000 100000 v_PotEn file PotenE.dat

compute T all temp
fix TempAve all ave/time 1 100000 100000 c_T file temperature.dat

compute P all pressure T
fix PressAve all ave/time 1 100000 100000 c_P file pressure.dat

# computing self-diffusion and Onsager coefficients using the OCTP plugin
compute positions all position
fix f1 all ordern diffusivity 500 50000 c_positions nb 10 nbe 20

# computing shear and bulk viscosities  using the OCTP plugin
fix f2 all ordern viscosity 5 50000 c_P nb 10 nbe 20

# computing thermal conductivity using the OCTP plugin
compute KE all ke/atom
compute PE all pe/atom
compute ST all stress/atom NULL virial
compute heatflux all heat/flux KE PE ST
fix f3 all ordern thermalconductivity 5 50000 c_heatflux nb 10 nbe 20

# computing the RDF for all group pairs
compute rdfs all rdf/ext Nbin 2000 Nwrite 1000
fix f4 all ave/time 1 1 1000 c_rdfs

dump trjectory all xyz 100000 movie.xyz
dump_modify trjectory element Ow H K Cl

run 50000000
PPPM initialization ...
  extracting TIP4P info from pair style
  G vector (1/distance) = 0.309807
  grid = 30 30 30
  stencil order = 5
  estimated absolute RMS force accuracy = 0.00379481
  estimated relative force accuracy = 1.1428e-05
  3d grid and FFT values/proc = 2475 256
Step Density Temp Press TotEng
0    1.1515882    304.29253    720.32282   -16677.548
Averages over the last 41 of 81 rows, steps 4000000 to 8000000:
Density Temp Press TotEng
1.15159 298.262 -43.9974 -16760.5
