LAMMPS (16 Mar 2018)
####################################################
# Preprocessing Li2SO4 in water
#################### SETTING UP ####################
units real
dimension 3
newton on
boundary p p p
atom_style full

#################### VARIABLES ####################
variable Temp equal 298.15    # Temperature in K
variable Pres equal 1    # Pressure in atm.

variable RandomSeed equal 77 # The random seed for velocity
variable tstep equal 2 # timestep in fs

#################### NPT ####################
variable Ninptpre equal 10000 # Pre-initialize the NPT ensemble (very small timesteps)
variable Ninpt equal 5000000  # Initialize the NPT ensemble
variable Npnpt equal 5000000  # Production in the NPT ensemble (volume)

#################### NVT ####################
variable Ninvtpre equal 10000  # Pre-initialize the NVT ensemble (very small timesteps)
variable Ninvt equal 2500000   # Initialize the NVT ensemble 2.5Mstep
variable Nrun1 equal 250000  # production in the NVT ensemble (Transport properties)
variable Nrun2 equal 1000000  # production in the NVT ensemble (Transport properties)
variable Nrun3 equal 2500000  # production in the NVT ensemble (Transport properties)
variable Nrun4 equal 5000000  # production in the NVT ensemble (Transport properties)

variable Nf equal 100000      # Nfreq (fix ave/time and thermo)
variable Ne equal  1          # Nevery (fix ave/time)
variable Nr equal 100000/1
variable Nd equal 100000
variable NBR equal 5000000/100

variable nb equal 10          # Number of blocks (fix ordern)
variable nbe equal 20         # Number of block elements (fix ordern)
variable Nvisc equal 5        # Nevery for viscosity (fix ordern: sample data at (Nvisc*2))
variable Ncond equal 5        # Nevery for Tconductivity (fix ordern: sample data at (Ncond*2))
variable Ndiff equal 1000     # Nevery for diffusivity (fix ordern: sample data at (Ndiff))
variable Nwrit equal 100000   # Nwrite for transport properties (fix ordern: write every (Nwrit))

variable Nrdfe equal 1000     # Nevery for RDF (fix ave/time)
variable Nrdfw equal 1000     # Nwrite for RDF (compute rdf/ext: write every (Nrdfw*Nrdfe))
variable binnum equal 2000    # Number of bins for RDF

#################### ATOM DEFINITION and FORCEFIELD ####################
read_data ./data.lmp                     # read the positions
  orthogonal box = (0 0 0) to (25.8482 25.8482 25.8482)
  reading atoms ...
  1572 atoms
  scanning bonds ...
  scanning angles ...
  reading bonds ...
  1000 bonds
  reading angles ...
  500 angles
include ./forcefield.data                # read the force field
#--------INTERMOLECULAR POTENTIAL -------------------#
# --------Developed for MadridT KCl + TIP4P/2005-----#

mass 1 15.9994	# Ow
mass 2 1.008	# Hw
mass 3 39.0983	# K
mass 4 35.453	# Cl

pair_style lj/cut/tip4p/long 1 2 1 1 0.1546 10.0
kspace_style pppm/tip4p 1.0e-5
pair_modify mix arithmetic tail yes # ATC and Lorentz-Berthelot combining rules

#-----------------Combinations----------------------------
# atomtype atomtype epsilon sigma

pair_coeff 1 1 0.185200 3.15890    # Ow-Ow
pair_coeff 1 2 0.000000 0.00000    # Ow-Hw
pair_coeff 1 3 0.334711 2.89540    # Ow-K
pair_coeff 1 4 0.014814 4.07631    # Ow-Cl

pair_coeff 2 2 0.000000 0.00000    # Hw-Hw
pair_coeff 2 3 0.000000 0.00000    # Hw-K
pair_coeff 2 4 0.000000 0.00000    # Hw-Cl

pair_coeff 3 3 0.474603 3.41700    # K-K
pair_coeff 3 4 0.334608 3.41700    # K-Cl

pair_coeff 4 4 0.018385 4.69906    # Cl-Cl

bond_style  harmonic
bond_coeff 1 2000 0.9572           # Ow-Hw

angle_style harmonic
angle_coeff 1 200 104.52           # H-Ow-H

#dihedral_style none
#improper_style none

set type 1 charge -1.1128          # O
  500 settings made for charge
set type 2 charge +0.5564          # OH
  1000 settings made for charge
set type 3 charge +0.7500          # K
  36 settings made for charge
set type 4 charge -0.7500          # Cl
  36 settings made for charge

#################### INITIALIZATION ####################
group wat type 1		# O water
500 atoms in group wat
group K type 3			# Potasium ion
36 atoms in group K
group Cl type 4			# Chlorine ion
36 atoms in group Cl

# neigbor lists
neighbor 2.0 bin
neigh_modify every 1 delay 0 check yes

# velocity-Verlet integrator
run_style verlet

# initializing velocities
velocity all create 298.15 77

# rate of writing thermal properties to the log file
thermo_style custom step density temp press etotal
thermo_modify flush yes
thermo 100000

#################### 2) Initialize the NPT ensemble ####################
######### Go to the correct temperature now ant initiate that ##########
fix constrain all shake 1.0e-6 1000 0 b 1 a 1
fix integrate all npt temp 298.15 298.15 10.0 iso 1 1 100.0

# Initializing the whole system with very small timesteps in the NPT ensemble
timestep 0.001
run 10000
PPPM initialization ...
  extracting TIP4P info from pair style
  G vector (1/distance) = 0.309797
  grid = 24 24 24
  stencil order = 5
  estimated absolute RMS force accuracy = 0.00375155
  estimated relative force accuracy = 1.12977e-05
  3d grid and FFT values/proc = 5415 1152
  update every 1 steps, delay 0 steps, check yes
Step Density Temp Press TotEng
0    1.1241608    437.34234    170151.77    2311.9202
Loop time of 39.6178 on 12 procs for 10000 steps with 1572 atoms

timestep 0.01
run 10000
PPPM initialization ...
  extracting TIP4P info from pair style
  G vector (1/distance) = 0.310448
  grid = 25 25 25
  stencil order = 5
  estimated absolute RMS force accuracy = 0.00343494
  estimated relative force accuracy = 1.03442e-05
  3d grid and FFT values/proc = 6400 1875
Step Density Temp Press TotEng
10000    1.0219877    1144.3962    1441094.7    349.63369
Loop time of 41.1121 on 12 procs for 10000 steps with 1572 atoms

timestep 0.1
run 10000
PPPM initialization ...
  extracting TIP4P info from pair style
  G vector (1/distance) = 0.310466
  grid = 24 24 24
  stencil order = 5
  estimated absolute RMS force accuracy = 0.00364942
  estimated relative force accuracy = 1.09901e-05
  3d grid and FFT values/proc = 5415 1152
Step Density Temp Press TotEng
20000    1.1558319    312.02572   -22404.869   -7222.0088
Loop time of 42.9154 on 12 procs for 10000 steps with 1572 atoms

timestep 0.2
run 10000
PPPM initialization ...
  extracting TIP4P info from pair style
  G vector (1/distance) = 0.310474
  grid = 24 24 24
  stencil order = 5
  estimated absolute RMS force accuracy = 0.00364823
  estimated relative force accuracy = 1.09865e-05
  3d grid and FFT values/proc = 5415 1152
Step Density Temp Press TotEng
30000    1.1562132    289.10889   -3745.2769   -8304.5771
Loop time of 43.9863 on 12 procs for 10000 steps with 1572 atoms

timestep 0.5
run 10000
PPPM initialization ...
  extracting TIP4P info from pair style
  G vector (1/distance) = 0.310309
  grid = 24 24 24
  stencil order = 5
  estimated absolute RMS force accuracy = 0.00367313
  estimated relative force accuracy = 1.10615e-05
  3d grid and FFT values/proc = 5415 1152
Step Density Temp Press TotEng
40000    1.1483204    298.16876   -2718.2723   -8384.1629
Loop time of 44.474 on 12 procs for 10000 steps with 1572 atoms

reset_timestep 0

# continuing the initialization with the final value of timestep
unfix integrate
fix integrate all npt temp 298.15 298.15 100.0 iso 1 1 1000.0

timestep 2

run 5000000
PPPM initialization ...
  extracting TIP4P info from pair style
  G vector (1/distance) = 0.310714
  grid = 24 24 24
  stencil order = 5
  estimated absolute RMS force accuracy = 0.00361212
  estimated relative force accuracy = 1.08778e-05
  3d grid and FFT values/proc = 5415 1152
Step Density Temp Press TotEng
0    1.1678552    295.74963    -190.0337   -8435.0341
Averages over the last 26 of 51 rows, steps 2500000 to 5000000:
Density Temp Press TotEng
1.15098 296.84 -91.0416 -8395.91
Loop time of 22974.4 on 12 procs for 5000000 steps with 1572 atoms

reset_timestep 0

#################### 3) Obtaining average volume in NPT ######################
# Creating restart files
restart 100000 1.restart 2.restart

# Getting the average volume of the system
variable Volume equal vol
fix VoluAve all ave/time 1 5000000 5000000 v_Volume file volume.dat

variable Dens equal density
fix DensAve all ave/time 1 50000 50000 v_Dens file density.dat

compute T1 all temp
fix TempAve1 all ave/time 1 50000 50000 c_T1 file temperatureNPT.dat

compute P1 all pressure T1
fix PressAve1 all ave/time 1 50000 50000 c_P1 file pressureNPT.dat

run 5000000
PPPM initialization ...
  extracting TIP4P info from pair style
  G vector (1/distance) = 0.310467
  grid = 24 24 24
  stencil order = 5
  estimated absolute RMS force accuracy = 0.00364916
  estimated relative force accuracy = 1.09893e-05
  3d grid and FFT values/proc = 5415 1152
Step Density Temp Press TotEng
0    1.1559152    304.53362    246.64906    -8415.981
Averages over the last 26 of 51 rows, steps 2500000 to 5000000:
Density Temp Press TotEng
1.15358 298.145 -46.2775 -8386.9
Loop time of 23102.7 on 12 procs for 5000000 steps with 1572 atoms

#################### 4) Initializing the NVT ensemble ####################
# scaling the size of the system to the average volume
variable sidesize equal (f_VoluAve^(1.0/3.0))    # get the volume
variable xlow equal xlo
variable ylow equal ylo
variable zlow equal zlo
variable xhig equal (xlo+25.6315599986104)
variable yhig equal (ylo+25.6315599986104)
variable zhig equal (zlo+25.6315599986104)
change_box all x final 0.126409384261608 25.757969382872 y final 0.126409384261608 25.757969382872 z final 0.126409384261608 25.757969382872
  orthogonal box = (0.126409 0.126409 0.126409) to (25.758 25.7218 25.7218)
  orthogonal box = (0.126409 0.126409 0.126409) to (25.758 25.758 25.7218)
  orthogonal box = (0.126409 0.126409 0.126409) to (25.758 25.758 25.758)
unfix DensAve
unfix VoluAve
unfix TempAve1
unfix PressAve1

# changing the ensemble to NVT
unfix integrate
fix integrate all nvt temp 298.15 298.15 10.0

timestep 0.001
run 10000
PPPM initialization ...
  extracting TIP4P info from pair style
  G vector (1/distance) = 0.310405
  grid = 24 24 24
  stencil order = 5
  estimated absolute RMS force accuracy = 0.0036586
  estimated relative force accuracy = 1.10178e-05
  3d grid and FFT values/proc = 5415 1152
Step Density Temp Press TotEng
5000000    1.1529113    291.92617   -15611.067   -8430.9135
Loop time of 29.8808 on 12 procs for 10000 steps with 1572 atoms

timestep 0.01
run 10000
PPPM initialization ...
  extracting TIP4P info from pair style
  G vector (1/distance) = 0.310405
  grid = 24 24 24
  stencil order = 5
  estimated absolute RMS force accuracy = 0.0036586
  estimated relative force accuracy = 1.10178e-05
  3d grid and FFT values/proc = 5415 1152
Step Density Temp Press TotEng
5010000    1.1529113    299.72816    -488.9066   -8397.2462
Loop time of 29.7233 on 12 procs for 10000 steps with 1572 atoms

timestep 0.1
run 10000
PPPM initialization ...
  extracting TIP4P info from pair style
  G vector (1/distance) = 0.310405
  grid = 24 24 24
  stencil order = 5
  estimated absolute RMS force accuracy = 0.0036586
  estimated relative force accuracy = 1.10178e-05
  3d grid and FFT values/proc = 5415 1152
Step Density Temp Press TotEng
5020000    1.1529113    306.80285   -580.45771   -8311.5869
Loop time of 30.6096 on 12 procs for 10000 steps with 1572 atoms

timestep 0.2
run 10000
PPPM initialization ...
  extracting TIP4P info from pair style
  G vector (1/distance) = 0.310405
  grid = 24 24 24
  stencil order = 5
  estimated absolute RMS force accuracy = 0.0036586
  estimated relative force accuracy = 1.10178e-05
  3d grid and FFT values/proc = 5415 1152
Step Density Temp Press TotEng
5030000    1.1529113    303.65817   -930.86343    -8364.416
Loop time of 30.4901 on 12 procs for 10000 steps with 1572 atoms

timestep 0.5
run 10000
PPPM initialization ...
  extracting TIP4P info from pair style
  G vector (1/distance) = 0.310405
  grid = 24 24 24
  stencil order = 5
  estimated absolute RMS force accuracy = 0.0036586
  estimated relative force accuracy = 1.10178e-05
  3d grid and FFT values/proc = 5415 1152
Step Density Temp Press TotEng
5040000    1.1529113    286.71245    170.17667   -8389.7111
Loop time of 30.6366 on 12 procs for 10000 steps with 1572 atoms

unfix integrate
fix integrate all nvt temp 298.15 298.15 100.0
# continuing the initialization with the final value of timestep
timestep 2

run 2500000
PPPM initialization ...
  extracting TIP4P info from pair style
  G vector (1/distance) = 0.310405
  grid = 24 24 24
  stencil order = 5
  estimated absolute RMS force accuracy = 0.0036586
  estimated relative force accuracy = 1.10178e-05
  3d grid and FFT values/proc = 5415 1152
Step Density Temp Press TotEng
5050000    1.1529113    313.15595   -576.49041   -8406.8711
Averages over the last 14 of 27 rows, steps 6300000 to 7550000:
Density Temp Press TotEng
1.15291 300.351 -97.3582 -8382.54
Loop time of 8194.46 on 12 procs for 2500000 steps with 1572 atoms

reset_timestep 0

#################### 2) Production in NVT ensemble #####################
# computing average total energy, pontential energy, temperature, and pressure over time
variable TotEn equal etotal
fix TEAve all ave/time 1 100000 100000 v_TotEn file TotalE.dat

variable PotEn equal pe
fix PEAve all ave/time 1 100000 100000 v_PotEn file PotenE.dat

compute T all temp
fix TempAve all ave/time 1 100000 100000 c_T file temperature.dat

compute P all pressure T
fix PressAve all ave/time 1 100000 100000 c_P file pressure.dat

# computing self-diffusion and Onsager coefficients using the OCTP plugin
compute positions all position
fix f1 all ordern diffusivity 1000 100000 c_positions nb 10 nbe 20

# computing shear and bulk viscosities  using the OCTP plugin
fix f2 all ordern viscosity 5 100000 c_P nb 10 nbe 20

# computing thermal conductivity using the OCTP plugin
compute KE all ke/atom
compute PE all pe/atom
compute ST all stress/atom NULL virial
compute heatflux all heat/flux KE PE ST
fix f3 all ordern thermalconductivity 5 100000 c_heatflux nb 10 nbe 20

# computing the RDF for all group pairs
compute rdfs all rdf/ext Nbin 2000 Nwrite 1000
fix f4 all ave/time 1 1 1000 c_rdfs

dump trjectory all xyz 100000 movie.xyz
dump_modify trjectory element Ow H K Cl

run 250000
PPPM initialization ...
  extracting TIP4P info from pair style
  G vector (1/distance) = 0.310405
  grid = 24 24 24
  stencil order = 5
  estimated absolute RMS force accuracy = 0.0036586
  estimated relative force accuracy = 1.10178e-05
  3d grid and FFT values/proc = 5415 1152
Step Density Temp Press TotEng
0    1.1529113    307.54683   -456.54658   -8360.1457
Loop time of 1282.36 on 12 procs for 250000 steps with 1572 atoms

shell bash copy_files.sh dt_2 00.25Mstep

run 250000
PPPM initialization ...
  extracting TIP4P info from pair style
  G vector (1/distance) = 0.310405
  grid = 24 24 24
  stencil order = 5
  estimated absolute RMS force accuracy = 0.0036586
  estimated relative force accuracy = 1.10178e-05
  3d grid and FFT values/proc = 5415 1152
Step Density Temp Press TotEng
250000    1.1529113    287.60813   -271.39457   -8456.4586
Loop time of 1292.66 on 12 procs for 250000 steps with 1572 atoms

shell bash copy_files.sh dt_2 00.50Mstep

run 250000
PPPM initialization ...
  extracting TIP4P info from pair style
  G vector (1/distance) = 0.310405
  grid = 24 24 24
  stencil order = 5
  estimated absolute RMS force accuracy = 0.0036586
  estimated relative force accuracy = 1.10178e-05
  3d grid and FFT values/proc = 5415 1152
Step Density Temp Press TotEng
500000    1.1529113    303.20353   -1489.9915   -8378.4245
Loop time of 1283.76 on 12 procs for 250000 steps with 1572 atoms

shell bash copy_files.sh dt_2 00.75Mstep

run 250000
PPPM initialization ...
  extracting TIP4P info from pair style
  G vector (1/distance) = 0.310405
  grid = 24 24 24
  stencil order = 5
  estimated absolute RMS force accuracy = 0.0036586
  estimated relative force accuracy = 1.10178e-05
  3d grid and FFT values/proc = 5415 1152
Step Density Temp Press TotEng
750000    1.1529113    311.87471    94.680302   -8402.4361
Loop time of 1289.71 on 12 procs for 250000 steps with 1572 atoms

shell bash copy_files.sh dt_2 01.00Mstep

run 250000
PPPM initialization ...
  extracting TIP4P info from pair style
  G vector (1/distance) = 0.310405
  grid = 24 24 24
  stencil order = 5
  estimated absolute RMS force accuracy = 0.0036586
  estimated relative force accuracy = 1.10178e-05
  3d grid and FFT values/proc = 5415 1152
Step Density Temp Press TotEng
1000000    1.1529113    297.77305    183.83489   -8385.2911
Loop time of 1278.15 on 12 procs for 250000 steps with 1572 atoms

shell bash copy_files.sh dt_2 01.25Mstep

run 250000
PPPM initialization ...
  extracting TIP4P info from pair style
  G vector (1/distance) = 0.310405
  grid = 24 24 24
  stencil order = 5
  estimated absolute RMS force accuracy = 0.0036586
  estimated relative force accuracy = 1.10178e-05
  3d grid and FFT values/proc = 5415 1152
Step Density Temp Press TotEng
1250000    1.1529113    292.98677   -623.83457   -8402.6815
Loop time of 1285.87 on 12 procs for 250000 steps with 1572 atoms

shell bash copy_files.sh dt_2 01.50Mstep

run 250000
PPPM initialization ...
  extracting TIP4P info from pair style
  G vector (1/distance) = 0.310405
  grid = 24 24 24
  stencil order = 5
  estimated absolute RMS force accuracy = 0.0036586
  estimated relative force accuracy = 1.10178e-05
  3d grid and FFT values/proc = 5415 1152
Step Density Temp Press TotEng
1500000    1.1529113    303.91715   -365.21518   -8446.0527
Loop time of 1284.97 on 12 procs for 250000 steps with 1572 atoms

shell bash copy_files.sh dt_2 01.75Mstep

run 250000
PPPM initialization ...
  extracting TIP4P info from pair style
  G vector (1/distance) = 0.310405
  grid = 24 24 24
  stencil order = 5
  estimated absolute RMS force accuracy = 0.0036586
  estimated relative force accuracy = 1.10178e-05
  3d grid and FFT values/proc = 5415 1152
Step Density Temp Press TotEng
1750000    1.1529113    294.46485    1119.4469   -8360.8019
Loop time of 1284.2 on 12 procs for 250000 steps with 1572 atoms

shell bash copy_files.sh dt_2 02.00step

run 1000000
PPPM initialization ...
  extracting TIP4P info from pair style
  G vector (1/distance) = 0.310405
  grid = 24 24 24
  stencil order = 5
  estimated absolute RMS force accuracy = 0.0036586
  estimated relative force accuracy = 1.10178e-05
  3d grid and FFT values/proc = 5415 1152
Step Density Temp Press TotEng
2000000    1.1529113    294.02863   -109.28405   -8331.0511
Averages over the last 6 of 11 rows, steps 2500000 to 3000000:
Density Temp Press TotEng
1.15291 298.757 474.395 -8419.56
Loop time of 5114.81 on 12 procs for 1000000 steps with 1572 atoms

shell bash copy_files.sh dt_2 03.00Mstep

run 1000000
PPPM initialization ...
  extracting TIP4P info from pair style
  G vector (1/distance) = 0.310405
  grid = 24 24 24
  stencil order = 5
  estimated absolute RMS force accuracy = 0.0036586
  estimated relative force accuracy = 1.10178e-05
  3d grid and FFT values/proc = 5415 1152
Step Density Temp Press TotEng
3000000    1.1529113    302.72787    1873.0559   -8366.7562
Averages over the last 6 of 11 rows, steps 3500000 to 4000000:
Density Temp Press TotEng
1.15291 300.19 -5.06265 -8376.97
Loop time of 5139.35 on 12 procs for 1000000 steps with 1572 atoms

shell bash copy_files.sh dt_2 04.00Mstep

run 1000000
PPPM initialization ...
  extracting TIP4P info from pair style
  G vector (1/distance) = 0.310405
  grid = 24 24 24
  stencil order = 5
  estimated absolute RMS force accuracy = 0.0036586
  estimated relative force accuracy = 1.10178e-05
  3d grid and FFT values/proc = 5415 1152
Step Density Temp Press TotEng
4000000    1.1529113    301.09173   -637.23987   -8356.5718
Averages over the last 6 of 11 rows, steps 4500000 to 5000000:
Density Temp Press TotEng
1.15291 294.835 -201.512 -8392.92
Loop time of 5105.06 on 12 procs for 1000000 steps with 1572 atoms

shell bash copy_files.sh dt_2 05.00Mstep

run 1000000
PPPM initialization ...
  extracting TIP4P info from pair style
  G vector (1/distance) = 0.310405
  grid = 24 24 24
  stencil order = 5
  estimated absolute RMS force accuracy = 0.0036586
  estimated relative force accuracy = 1.10178e-05
  3d grid and FFT values/proc = 5415 1152
Step Density Temp Press TotEng
5000000    1.1529113    296.31039   -1258.5246   -8377.4978
Averages over the last 6 of 11 rows, steps 5500000 to 6000000:
Density Temp Press TotEng
1.15291 297.849 585.336 -8383.44
Loop time of 5149.57 on 12 procs for 1000000 steps with 1572 atoms

shell bash copy_files.sh dt_2 06.00Mstep

run 1000000
PPPM initialization ...
  extracting TIP4P info from pair style
  G vector (1/distance) = 0.310405
  grid = 24 24 24
  stencil order = 5
  estimated absolute RMS force accuracy = 0.0036586
  estimated relative force accuracy = 1.10178e-05
  3d grid and FFT values/proc = 5415 1152
Step Density Temp Press TotEng
6000000    1.1529113    306.00193    1387.0676   -8386.4159
Averages over the last 6 of 11 rows, steps 6500000 to 7000000:
Density Temp Press TotEng
1.15291 294.699 208.493 -8424.56
Loop time of 5129.93 on 12 procs for 1000000 steps with 1572 atoms

shell bash copy_files.sh dt_2 07.00Mstep

run 1000000
PPPM initialization ...
  extracting TIP4P info from pair style
  G vector (1/distance) = 0.310405
  grid = 24 24 24
  stencil order = 5
  estimated absolute RMS force accuracy = 0.0036586
  estimated relative force accuracy = 1.10178e-05
  3d grid and FFT values/proc = 5415 1152
Step Density Temp Press TotEng
7000000    1.1529113    288.78706   -789.52611   -8420.0889
Averages over the last 6 of 11 rows, steps 7500000 to 8000000:
Density Temp Press TotEng
1.15291 300.708 -150.022 -8369.41
Loop time of 5131.35 on 12 procs for 1000000 steps with 1572 atoms

shell bash copy_files.sh dt_2 08.00Mstep

run 1000000
PPPM initialization ...
  extracting TIP4P info from pair style
  G vector (1/distance) = 0.310405
  grid = 24 24 24
  stencil order = 5
  estimated absolute RMS force accuracy = 0.0036586
  estimated relative force accuracy = 1.10178e-05
  3d grid and FFT values/proc = 5415 1152
Step Density Temp Press TotEng
8000000    1.1529113    304.80432    232.20424   -8390.3605
Averages over the last 6 of 11 rows, steps 8500000 to 9000000:
Density Temp Press TotEng
1.15291 300.803 -103.765 -8426.8
Loop time of 5153.99 on 12 procs for 1000000 steps with 1572 atoms

shell bash copy_files.sh dt_2 09.00Mstep

run 1000000
PPPM initialization ...
  extracting TIP4P info from pair style
  G vector (1/distance) = 0.310405
  grid = 24 24 24
  stencil order = 5
  estimated absolute RMS force accuracy = 0.0036586
  estimated relative force accuracy = 1.10178e-05
  3d grid and FFT values/proc = 5415 1152
Step Density Temp Press TotEng
9000000    1.1529113    301.52403   -2.4099894   -8439.3889
Averages over the last 6 of 11 rows, steps 9500000 to 10000000:
Density Temp Press TotEng
1.15291 304.736 164.262 -8363.22
Loop time of 5132.58 on 12 procs for 1000000 steps with 1572 atoms

shell bash copy_files.sh dt_2 10.00Mstep

run 2500000
PPPM initialization ...
  extracting TIP4P info from pair style
  G vector (1/distance) = 0.310405
  grid = 24 24 24
  stencil order = 5
  estimated absolute RMS force accuracy = 0.0036586
  estimated relative force accuracy = 1.10178e-05
  3d grid and FFT values/proc = 5415 1152
Step Density Temp Press TotEng
10000000    1.1529113     291.2327    668.83058   -8443.9956
Averages over the last 13 of 26 rows, steps 11300000 to 12500000:
Density Temp Press TotEng
1.15291 298.661 -45.0656 -8381.76
Loop time of 12844.5 on 12 procs for 2500000 steps with 1572 atoms

shell bash copy_files.sh dt_2 12.50Mstep

run 2500000
PPPM initialization ...
  extracting TIP4P info from pair style
  G vector (1/distance) = 0.310405
  grid = 24 24 24
  stencil order = 5
  estimated absolute RMS force accuracy = 0.0036586
  estimated relative force accuracy = 1.10178e-05
  3d grid and FFT values/proc = 5415 1152
Step Density Temp Press TotEng
12500000    1.1529113    289.05832    127.93665   -8448.6456
Averages over the last 13 of 26 rows, steps 13800000 to 15000000:
Density Temp Press TotEng
1.15291 299.814 200.749 -8378.25
Loop time of 12825 on 12 procs for 2500000 steps with 1572 atoms

shell bash copy_files.sh dt_2 15.00Mstep

run 2500000
PPPM initialization ...
  extracting TIP4P info from pair style
  G vector (1/distance) = 0.310405
  grid = 24 24 24
  stencil order = 5
  estimated absolute RMS force accuracy = 0.0036586
  estimated relative force accuracy = 1.10178e-05
  3d grid and FFT values/proc = 5415 1152
Step Density Temp Press TotEng
15000000    1.1529113     304.1054    865.18994    -8334.113
Averages over the last 13 of 26 rows, steps 16300000 to 17500000:
Density Temp Press TotEng
1.15291 300.858 230.239 -8386.8
Loop time of 12837.4 on 12 procs for 2500000 steps with 1572 atoms

shell bash copy_files.sh dt_2 17.50Mstep

run 2500000
PPPM initialization ...
  extracting TIP4P info from pair style
  G vector (1/distance) = 0.310405
  grid = 24 24 24
  stencil order = 5
  estimated absolute RMS force accuracy = 0.0036586
  estimated relative force accuracy = 1.10178e-05
  3d grid and FFT values/proc = 5415 1152
Step Density Temp Press TotEng
17500000    1.1529113    298.19374   -473.07906   -8416.9098
Averages over the last 13 of 26 rows, steps 18800000 to 20000000:
Density Temp Press TotEng
1.15291 297.849 -123.825 -8398.66
Loop time of 12848.5 on 12 procs for 2500000 steps with 1572 atoms

shell bash copy_files.sh dt_2 20.00Mstep

run 5000000
PPPM initialization ...
  extracting TIP4P info from pair style
  G vector (1/distance) = 0.310405
  grid = 24 24 24
  stencil order = 5
  estimated absolute RMS force accuracy = 0.0036586
  estimated relative force accuracy = 1.10178e-05
  3d grid and FFT values/proc = 5415 1152
Step Density Temp Press TotEng
20000000    1.1529113    291.53912    607.55671   -8386.5864
Averages over the last 26 of 51 rows, steps 22500000 to 25000000:
Density Temp Press TotEng
1.15291 300.088 116.653 -8393.61
Loop time of 25635.7 on 12 procs for 5000000 steps with 1572 atoms

shell bash copy_files.sh dt_2 25.00Mstep

run 5000000
PPPM initialization ...
  extracting TIP4P info from pair style
  G vector (1/distance) = 0.310405
  grid = 24 24 24
  stencil order = 5
  estimated absolute RMS force accuracy = 0.0036586
  estimated relative force accuracy = 1.10178e-05
  3d grid and FFT values/proc = 5415 1152
Step Density Temp Press TotEng
25000000    1.1529113    310.71657     232.5447   -8367.8224
Averages over the last 26 of 51 rows, steps 27500000 to 30000000:
Density Temp Press TotEng
1.15291 297.014 -31.6883 -8384.33
Loop time of 25719.4 on 12 procs for 5000000 steps with 1572 atoms

shell bash copy_files.sh dt_2 30.00Mstep

run 5000000
PPPM initialization ...
  extracting TIP4P info from pair style
  G vector (1/distance) = 0.310405
  grid = 24 24 24
  stencil order = 5
  estimated absolute RMS force accuracy = 0.0036586
  estimated relative force accuracy = 1.10178e-05
  3d grid and FFT values/proc = 5415 1152
Step Density Temp Press TotEng
30000000    1.1529113    293.99336   -174.14782   -8413.3573
Averages over the last 26 of 51 rows, steps 32500000 to 35000000:
Density Temp Press TotEng
1.15291 297.059 -233.051 -8409.7
Loop time of 25740.5 on 12 procs for 5000000 steps with 1572 atoms

shell bash copy_files.sh dt_2 35.00Mstep

run 5000000
PPPM initialization ...
  extracting TIP4P info from pair style
  G vector (1/distance) = 0.310405
  grid = 24 24 24
  stencil order = 5
  estimated absolute RMS force accuracy = 0.0036586
  estimated relative force accuracy = 1.10178e-05
  3d grid and FFT values/proc = 5415 1152
Step Density Temp Press TotEng
35000000    1.1529113    286.13987   -389.90916   -8400.0103
Averages over the last 26 of 51 rows, steps 37500000 to 40000000:
Density Temp Press TotEng
1.15291 296.954 58.7734 -8390.36
Loop time of 25696.5 on 12 procs for 5000000 steps with 1572 atoms

shell bash copy_files.sh dt_2 40.00Mstep

run 5000000
PPPM initialization ...
  extracting TIP4P info from pair style
  G vector (1/distance) = 0.310405
  grid = 24 24 24
  stencil order = 5
  estimated absolute RMS force accuracy = 0.0036586
  estimated relative force accuracy = 1.10178e-05
  3d grid and FFT values/proc = 5415 1152
Step Density Temp Press TotEng
40000000    1.1529113    291.88664   -107.37812   -8360.3476
Averages over the last 26 of 51 rows, steps 42500000 to 45000000:
Density Temp Press TotEng
1.15291 296.093 -59.5501 -8400.74
Loop time of 25740.9 on 12 procs for 5000000 steps with 1572 atoms

shell bash copy_files.sh dt_2 45.00Mstep

run 5000000
PPPM initialization ...
  extracting TIP4P info from pair style
  G vector (1/distance) = 0.310405
  grid = 24 24 24
  stencil order = 5
  estimated absolute RMS force accuracy = 0.0036586
  estimated relative force accuracy = 1.10178e-05
  3d grid and FFT values/proc = 5415 1152
Step Density Temp Press TotEng
45000000    1.1529113    289.88236    354.06647   -8365.3246
Averages over the last 26 of 51 rows, steps 47500000 to 50000000:
Density Temp Press TotEng
1.15291 298.128 -31.7807 -8393.76
Loop time of 25646.7 on 12 procs for 5000000 steps with 1572 atoms
