LAMMPS (22 Aug 2018)
####################################################
# Transport properties of KCl in water
#  at 298 K and 1 atm.
#################### SETTING UP ####################
units real
dimension 3
newton on
boundary p p p
atom_style full

#################### VARIABLES ####################
variable Temp equal 298       # Temperature in K
variable Pres equal 1.0       # Pressure in atm.

variable RandomSeed equal 400 # The random seed for velocity
variable tstep equal 2.0      # 2fs
variable Ninptpre equal 10000 # Pre-initialize the NPT ensemble (very small timesteps)
variable Ninpt equal 5000000    # Initialize the NPT ensemble
variable Npnpt equal 5000000  # Production in the NPT ensemble (volume)
variable Ninvtpre equal 10000 # Pre-initialize the NVT ensemble (very small timesteps)
variable Ninvt equal 100000   # Initialize the NVT ensemble
variable Npnvt equal 100000   # Production in the NVT ensemble (energy)
variable Nrun equal 100000000   # production in the NVE ensemble
variable Nf equal 10000       # Nfreq (fix ave/time and thermo)
variable Ne equal  10         # Nevery (fix ave/time)
variable Nr equal 10000/10
variable NBR equal 5000000/50
variable Nd equal 100000/10

variable nb equal 10          # Number of blocks (fix ordern)
variable nbe equal 20         # Number of block elements (fix ordern)
variable Nvisc equal 5        # Nevery for viscosity (fix ordern: sample data at (Nvisc*2))
variable Ncond equal 5        # Nevery for Tconductivity (fix ordern: sample data at (Ncond*2))
variable Ndiff equal 1000     # Nevery for diffusivity (fix ordern: sample data at (Ndiff))
variable Nwrit equal 100000   # Nwrite for transport properties (fix ordern: write every (Nwrit))

variable Nrdfe equal 100      # Nevery for RDF (fix ave/time)
variable Nrdfw equal 1000     # Nwrite for RDF (compute rdf/ext: write every (Nrdfw*Nrdfe))
variable binnum equal 2000    # Number of bins for RDF

#################### ATOM DEFINITION and FORCEFIELD ####################
read_data ./data.lmp                     # read the positions
  orthogonal box = (0 0 0) to (33.6962 33.6962 33.6962)
  reading atoms ...
  3152 atoms
  scanning bonds ...
  scanning angles ...
  reading bonds ...
  2000 bonds
  reading angles ...
  1000 angles
include ./forcefield.data                  # read the force field
#--------INTERMOLECULAR POTENTIAL -------------------#
# ---------------Developed for NaCl in water (tip4p/2005) system-----

mass 1 15.9994 # Ow
mass 2 1.00794 # Hw
mass 3 39.0983 # K
mass 4 35.4527 # Cl

pair_style lj/cut/tip4p/long 1 2 1 1 0.1546 10.0

kspace_style pppm/tip4p 1.0e-5
pair_modify tail yes # ATC i

#-----------------Combinations----------------------------
# atomtype atomtype epsilon sigma

pair_coeff 1 1 0.1851 3.1589     # Ow-Ow
pair_coeff 1 2 0.0000 0.0000     # Ow-Hw
pair_coeff 1 3 0.3347 2.89540     # Ow-K
pair_coeff 1 4 0.0148 4.07631     # Ow-Cl

pair_coeff 2 2 0.0000 0.0000     # Hw-Hw
pair_coeff 2 3 0.0000 0.0000     # Hw-K
pair_coeff 2 4 0.0000 0.0000     # Hw-Cl

pair_coeff 3 3 0.4746 2.30140     # K-K
pair_coeff 3 4 0.3346 3.41700     # K-Cl

pair_coeff 4 4 0.0184 4.69906     # Cl-Cl

bond_style  harmonic
bond_coeff 1 1000 0.9572          # Ow-Hw

angle_style harmonic
angle_coeff 1 100 104.52          # H-O-H

#dihedral_style none
#improper_style none

set type 1 charge -1.1128        # O
  1000 settings made for charge
set type 2 charge +0.5564        # OH
  2000 settings made for charge
set type 3 charge +0.7500        # K
  76 settings made for charge
set type 4 charge -0.7500        # Cl
  76 settings made for charge

#################### INITIALIZATION ####################
# groups for the central atoms of water (O)
group wat type 1      # The Oxygen of WATER molecules
1000 atoms in group wat
group K type 3
76 atoms in group K
group Cl type 4
76 atoms in group Cl

# neigbor lists
neighbor 2.0 bin
neigh_modify every 1 delay 0 check yes

# velocity-Verlet integrator
run_style verlet

# minimizing the system using the conjugate gradient method
min_style cg
min_modify dmax 0.05
minimize 1.0e-6 1.0e-6 1000 10000
PPPM initialization ...
  extracting TIP4P info from pair style
  G vector (1/distance) = 0.311414
  grid = 32 32 32
  stencil order = 5
  estimated absolute RMS force accuracy = 0.0032261
  estimated relative force accuracy = 9.71531e-06
  3d grid and FFT values/proc = 2475 256
  update every 1 steps, delay 0 steps, check yes
Step Temp E_pair E_mol TotEng Press
0            0    953.99707 3.2938476e-05    953.99711    26411.001
Loop time of 1.41465 on 128 procs for 1000 steps with 3152 atoms

Minimization stats:
  Stopping criterion = max iterations
  Energy initial, next-to-last, final =
  Force two-norm initial, final = 1809.72 21.4545
  Force max component initial, final = 225.95 2.9606
  Final line search alpha, max atom move = 0.0105836 0.0313339
  Iterations, force evaluations = 1000 1778

reset_timestep 0

# initializing velocities
velocity all create 298 400

# rate of writing thermal properties to the log file
thermo 10000

#################### 1) Initialize the NPT ensemble ####################
# applying the shake algorithm for rigid molecules and the NPT solver
fix constrain all shake 1.0e-6 1000 0 b 1 a 1
fix integrate all npt temp 298 298 10.0 iso 1 1 100.0

# Initializing the whole system with very small timesteps in the NPT ensemble
timestep 0.001
run 10000
PPPM initialization ...
  extracting TIP4P info from pair style
  G vector (1/distance) = 0.311414
  grid = 32 32 32
  stencil order = 5
  estimated absolute RMS force accuracy = 0.0032261
  estimated relative force accuracy = 9.71531e-06
  3d grid and FFT values/proc = 2475 256
Step Temp E_pair E_mol TotEng Press Volume
0    436.54021   -21619.888            0   -18820.913   -826241.43    38259.716
Loop time of 9.38099 on 128 procs for 10000 steps with 3152 atoms

timestep 0.01
run 10000
PPPM initialization ...
  extracting TIP4P info from pair style
  G vector (1/distance) = 0.311521
  grid = 32 32 32
  stencil order = 5
  estimated absolute RMS force accuracy = 0.00321181
  estimated relative force accuracy = 9.67226e-06
  3d grid and FFT values/proc = 2475 256
Step Temp E_pair E_mol TotEng Press Volume
10000    177.69277   -20020.625            0   -18881.308    -58174.44    38088.558
Loop time of 9.28586 on 128 procs for 10000 steps with 3152 atoms

timestep 0.1
run 10000
PPPM initialization ...
  extracting TIP4P info from pair style
  G vector (1/distance) = 0.31103
  grid = 32 32 32
  stencil order = 5
  estimated absolute RMS force accuracy = 0.00327793
  estimated relative force accuracy = 9.87137e-06
  3d grid and FFT values/proc = 2475 256
Step Temp E_pair E_mol TotEng Press Volume
20000    302.83737   -18753.018            0   -16811.309    -15205.63    38880.017
Loop time of 9.57798 on 128 procs for 10000 steps with 3152 atoms

timestep 0.2
run 10000
PPPM initialization ...
  extracting TIP4P info from pair style
  G vector (1/distance) = 0.309198
  grid = 30 30 30
  stencil order = 5
  estimated absolute RMS force accuracy = 0.00389522
  estimated relative force accuracy = 1.17303e-05
  3d grid and FFT values/proc = 2475 256
Step Temp E_pair E_mol TotEng Press Volume
30000    290.88501   -18867.821            0   -17002.747   -4498.4736    34578.435
Loop time of 9.46365 on 128 procs for 10000 steps with 3152 atoms

timestep 0.5
run 10000
PPPM initialization ...
  extracting TIP4P info from pair style
  G vector (1/distance) = 0.309617
  grid = 30 30 30
  stencil order = 5
  estimated absolute RMS force accuracy = 0.00382858
  estimated relative force accuracy = 1.15296e-05
  3d grid and FFT values/proc = 2475 256
Step Temp E_pair E_mol TotEng Press Volume
40000    301.18465   -19096.217            0   -17165.104   -2114.8965    33983.415
Loop time of 9.65415 on 128 procs for 10000 steps with 3152 atoms

reset_timestep 0

# continuing the initialization with the final value of timestep
unfix integrate
fix integrate all npt temp 298 298 100.0 iso 1 1 1000.0

timestep 2
run 5000000
PPPM initialization ...
  extracting TIP4P info from pair style
  G vector (1/distance) = 0.309624
  grid = 30 30 30
  stencil order = 5
  estimated absolute RMS force accuracy = 0.00382748
  estimated relative force accuracy = 1.15264e-05
  3d grid and FFT values/proc = 2475 256
Step Temp E_pair E_mol TotEng Press Volume
0    300.58261   -19035.454            0   -17108.202    600.79826    33973.643
Averages over the last 251 of 501 rows, steps 2500000 to 5000000:
Temp E_pair E_mol TotEng Press Volume
297.659 -19079.4 0 -17170.9 27.8999 33942.8
Loop time of 5146.65 on 128 procs for 5000000 steps with 3152 atoms

reset_timestep 0

#################### 2) Obtaining average volume in NPT ######################
# Getting the average volume of the system
variable Volume equal vol
fix VoluAve all ave/time 1 5000000 5000000 v_Volume file volume.dat

# Thermo style for outputing system properties to the log file
thermo_style custom density
thermo_modify flush yes

variable Dens equal density
fix DensAve all ave/time 1 100000 100000 v_Dens file density.dat

run 5000000
PPPM initialization ...
  extracting TIP4P info from pair style
  G vector (1/distance) = 0.309811
  grid = 30 30 30
  stencil order = 5
  estimated absolute RMS force accuracy = 0.0037982
  estimated relative force accuracy = 1.14382e-05
  3d grid and FFT values/proc = 2475 256
Density
   1.1664493
   1.1551148
   1.1652075
   1.1486627
   1.1548502
   1.1692614
   1.1545019
   1.1552128
   1.1566724
   1.1652839
   1.1561216
   1.1622653
   1.1625072
   1.1643688
   1.1606691
   1.1566287
   1.1651813
   1.1574299
   1.1674619
   1.1689154
    1.167376
   1.1599728
   1.1644593
   1.1456762
   1.1476062
   1.1599249
   1.1643979
   1.1523292
    1.164007
   1.1538346
   1.1652113
   1.1528885
   1.1621518
   1.1757161
    1.149263
   1.1691227
   1.1557907
   1.1520086
   1.1558856
   1.1620429
    1.148038
     1.16709
   1.1428803
   1.1581534
   1.1533005
   1.1544438
   1.1402435
   1.1512486
   1.1722135
   1.1592055
   1.1561536
   1.1635867
   1.1547125
    1.169893
   1.1474646
   1.1580643
   1.1552588
   1.1705141
   1.1668691
   1.1656248
   1.1698372
   1.1593352
   1.1677298
   1.1538018
   1.1640906
    1.161457
   1.1655775
   1.1621828
   1.1568607
     1.14962
   1.1610162
   1.1594587
    1.149806
   1.1405216
   1.1688754
   1.1634172
   1.1523495
   1.1500097
   1.1496822
   1.1658921
   1.1583772
   1.1442307
   1.1521938
   1.1619929
   1.1583068
   1.1694188
   1.1591756
    1.157746
   1.1451586
   1.1655694
   1.1603055
   1.1621221
   1.1493468
   1.1460083
   1.1620966
   1.1480162
   1.1514601
    1.162218
   1.1431192
    1.153793
   1.1492205
   1.1635867
   1.1548775
   1.1677076
   1.1572738
   1.1581883
   1.1581842
   1.1651327
   1.1613684
   1.1435223
   1.1483312
   1.1596551
   1.1534223
   1.1600712
   1.1620771
   1.1658327
   1.1525385
   1.1663202
   1.1523389
   1.1715555
   1.1626085
    1.165086
   1.1436667
    1.149644
   1.1552263
   1.1585291
    1.160405
   1.1633041
   1.1525415
   1.1486519
    1.141876
   1.1629974
   1.1581294
    1.166119
   1.1563777
   1.1654689
   1.1505527
   1.1492233
    1.169756
   1.1711674
   1.1579761
   1.1704237
   1.1691816
   1.1594486
   1.1612251
   1.1753355
   1.1657753
   1.1633459
   1.1562502
    1.158247
   1.1542608
   1.1594279
   1.1505206
   1.1574672
   1.1817194
   1.1546471
   1.1525521
   1.1466442
   1.1579824
   1.1578481
   1.1540439
   1.1474761
   1.1646942
   1.1630861
   1.1401543
   1.1652553
   1.1624411
   1.1437785
   1.1456895
    1.163035
   1.1682775
   1.1617933
   1.1650018
   1.1523273
    1.162788
   1.1537806
   1.1478233
   1.1541045
   1.1505786
   1.1518313
   1.1465399
   1.1712007
   1.1720425
    1.155806
   1.1569294
   1.1538534
   1.1581737
    1.164471
   1.1553745
   1.1464107
   1.1469771
   1.1577715
   1.1342593
   1.1581082
   1.1579629
   1.1474577
   1.1639606
   1.1426582
   1.1602625
   1.1665852
   1.1523839
   1.1628226
   1.1563542
   1.1503588
   1.1583658
   1.1626676
   1.1465685
   1.1519378
   1.1460942
   1.1608982
   1.1672045
   1.1438163
   1.1628821
   1.1660963
   1.1613525
    1.169592
   1.1607321
    1.167822
   1.1636519
   1.1796387
   1.1575232
   1.1557221
    1.162946
   1.1718986
   1.1706989
   1.1659632
   1.1690396
   1.1526105
   1.1534236
   1.1674226
   1.1457035
   1.1572406
   1.1612067
    1.160906
   1.1464942
    1.146472
   1.1663955
   1.1588875
   1.1593321
    1.141689
   1.1654151
   1.1495914
   1.1573685
   1.1592647
   1.1422276
   1.1585777
   1.1531855
   1.1574027
   1.1654319
   1.1539229
   1.1528526
   1.1516463
   1.1565802
    1.148225
   1.1644244
   1.1541108
   1.1617969
   1.1658523
   1.1590083
   1.1602373
   1.1481398
   1.1633184
    1.159895
   1.1560933
   1.1544301
   1.1726558
   1.1644894
    1.148487
   1.1661818
   1.1565044
   1.1444021
   1.1612176
   1.1535763
   1.1683594
   1.1579848
   1.1539694
   1.1532937
   1.1586769
   1.1540583
   1.1523173
    1.157246
   1.1749108
   1.1374103
   1.1542521
   1.1665574
   1.1465658
   1.1739771
   1.1663947
   1.1631659
   1.1541208
   1.1626385
   1.1549887
   1.1532041
   1.1634787
   1.1484707
   1.1657818
   1.1472066
   1.1451292
   1.1524344
    1.161949
   1.1463917
   1.1753978
    1.172401
   1.1555007
   1.1461032
   1.1445125
   1.1513694
   1.1572915
   1.1566244
   1.1821583
   1.1358949
   1.1573899
   1.1437279
   1.1604355
   1.1558362
   1.1533868
   1.1627767
   1.1727771
   1.1704337
   1.1645295
   1.1589485
   1.1598178
   1.1565718
   1.1691503
   1.1602535
   1.1525649
   1.1579288
   1.1582581
   1.1527729
   1.1438577
   1.1562182
   1.1727205
   1.1637598
   1.1643576
   1.1561199
   1.1659397
   1.1600658
   1.1443369
   1.1648601
   1.1628507
   1.1585906
    1.150408
   1.1602364
   1.1507312
   1.1539195
   1.1684858
   1.1539209
   1.1532503
   1.1537319
   1.1475272
   1.1472823
   1.1561263
   1.1581491
    1.154465
   1.1759968
   1.1474536
   1.1671902
   1.1490144
   1.1662252
   1.1632834
   1.1532481
   1.1521056
   1.1607301
   1.1462251
   1.1643914
   1.1492316
   1.1589382
   1.1626912
   1.1587522
   1.1635663
   1.1630342
   1.1663823
   1.1683186
   1.1779036
   1.1658457
   1.1620305
   1.1499433
   1.1651283
   1.1561224
   1.1586616
   1.1508265
   1.1598832
   1.1566039
   1.1434758
   1.1645709
   1.1494665
   1.1716909
   1.1611697
   1.1641324
    1.142799
   1.1589015
   1.1669675
   1.1498303
   1.1530322
   1.1596524
   1.1629391
   1.1469266
   1.1596611
   1.1705755
   1.1584825
   1.1572625
   1.1628565
   1.1601909
   1.1612495
   1.1654161
   1.1592682
   1.1612962
      1.1571
   1.1567483
   1.1599527
    1.160212
   1.1483661
   1.1500272
   1.1554982
   1.1557211
   1.1437335
   1.1548813
   1.1751536
   1.1599488
    1.161011
   1.1737295
   1.1449702
   1.1665732
    1.160593
   1.1684533
   1.1579087
   1.1579209
   1.1582502
   1.1610028
   1.1694604
    1.174325
   1.1562848
   1.1589476
   1.1657922
   1.1563018
        1.16
   1.1742177
   1.1621896
     1.15258
   1.1552943
   1.1634713
   1.1760596
   1.1631075
   1.1440927
   1.1649115
   1.1509669
   1.1740489
     1.16417
   1.1465339
   1.1462079
   1.1523543
   1.1764768
    1.178496
   1.1355644
   1.1677321
   1.1583161
   1.1762699
   1.1648078
    1.176444
   1.1555417
   1.1608639
   1.1677847
    1.158763
   1.1626425
   1.1613661
   1.1494919
   1.1536934
   1.1496794
   1.1586061
   1.1637863
   1.1530968
   1.1517078
   1.1444956
   1.1605037
   1.1578822
   1.1672315
   1.1624304
   1.1435306
   1.1468165
   1.1730608
   1.1467943
   1.1537455
   1.1537809
   1.1421764
   1.1597867
   1.1641756
   1.1470576
   1.1743373
   1.1646728
   1.1778932
   1.1718505
   1.1658853
   1.1518701
   1.1786005
   1.1539917
   1.1656296
   1.1488678
   1.1458336
   1.1490938
   1.1677234
   1.1519697
Loop time of 5199.57 on 128 procs for 5000000 steps with 3152 atoms

reset_timestep 0

#################### 3) Initializing the NVT ensemble ####################
# scaling the size of the system to the average volume
variable sidesize equal (f_VoluAve^(1.0/3.0))    # get the volume
variable xlow equal xlo
variable ylow equal ylo
variable zlow equal zlo
variable xhig equal (xlo+32.3741938521688)
variable yhig equal (ylo+32.3741938521688)
variable zhig equal (zlo+32.3741938521688)
change_box all x final 0.628480187381314 33.0026740395501 y final 0.628480187381314 33.0026740395501 z final 0.628480187381314 33.0026740395501
  orthogonal box = (0.62848 0.62848 0.62848) to (33.0027 33.0677 33.0677)
  orthogonal box = (0.62848 0.62848 0.62848) to (33.0027 33.0027 33.0677)
  orthogonal box = (0.62848 0.62848 0.62848) to (33.0027 33.0027 33.0027)
unfix DensAve
unfix VoluAve

# changing the ensemble to NVT
unfix integrate
fix integrate all nvt temp 298 298 100.0

# Initializing the whole system with very small timesteps in the NVT ensemble
timestep 0.001
run 10000
PPPM initialization ...
  extracting TIP4P info from pair style
  G vector (1/distance) = 0.309655
  grid = 30 30 30
  stencil order = 5
  estimated absolute RMS force accuracy = 0.00382271
  estimated relative force accuracy = 1.1512e-05
  3d grid and FFT values/proc = 2475 256
Density
   1.1589243
   1.1589243
Loop time of 7.81878 on 128 procs for 10000 steps with 3152 atoms

timestep 0.01
run 10000
PPPM initialization ...
  extracting TIP4P info from pair style
  G vector (1/distance) = 0.309655
  grid = 30 30 30
  stencil order = 5
  estimated absolute RMS force accuracy = 0.00382271
  estimated relative force accuracy = 1.1512e-05
  3d grid and FFT values/proc = 2475 256
Density
   1.1589243
   1.1589243
Loop time of 7.82693 on 128 procs for 10000 steps with 3152 atoms

timestep 0.1
run 10000
PPPM initialization ...
  extracting TIP4P info from pair style
  G vector (1/distance) = 0.309655
  grid = 30 30 30
  stencil order = 5
  estimated absolute RMS force accuracy = 0.00382271
  estimated relative force accuracy = 1.1512e-05
  3d grid and FFT values/proc = 2475 256
Density
   1.1589243
   1.1589243
Loop time of 7.75349 on 128 procs for 10000 steps with 3152 atoms

timestep 0.2
run 10000
PPPM initialization ...
  extracting TIP4P info from pair style
  G vector (1/distance) = 0.309655
  grid = 30 30 30
  stencil order = 5
  estimated absolute RMS force accuracy = 0.00382271
  estimated relative force accuracy = 1.1512e-05
  3d grid and FFT values/proc = 2475 256
Density
   1.1589243
   1.1589243
Loop time of 7.81973 on 128 procs for 10000 steps with 3152 atoms

timestep 0.5
run 10000
PPPM initialization ...
  extracting TIP4P info from pair style
  G vector (1/distance) = 0.309655
  grid = 30 30 30
  stencil order = 5
  estimated absolute RMS force accuracy = 0.00382271
  estimated relative force accuracy = 1.1512e-05
  3d grid and FFT values/proc = 2475 256
Density
   1.1589243
   1.1589243
Loop time of 7.91169 on 128 procs for 10000 steps with 3152 atoms

reset_timestep 0

# continuing the initialization with the final value of timestep
timestep 2
run 100000
PPPM initialization ...
  extracting TIP4P info from pair style
  G vector (1/distance) = 0.309655
  grid = 30 30 30
  stencil order = 5
  estimated absolute RMS force accuracy = 0.00382271
  estimated relative force accuracy = 1.1512e-05
  3d grid and FFT values/proc = 2475 256
Density
   1.1589243
   1.1589243
   1.1589243
   1.1589243
   1.1589243
   1.1589243
   1.1589243
   1.1589243
   1.1589243
   1.1589243
   1.1589243
Loop time of 83.8873 on 128 procs for 100000 steps with 3152 atoms

reset_timestep 0

#################### 4) Obtaining average total energy in NVT #####################
thermo_style custom temp pe ke etotal
thermo_modify flush yes

variable T1 equal temp
variable TE1 equal etotal
variable KE1 equal ke
variable PE1 equal pe
fix Tave1 all ave/time 100000 1 100000 v_T1
fix TEave1 all ave/time 1 100000 100000 v_TE1
fix KEave1 all ave/time 100000 1 100000 v_KE1
fix PEave1 all ave/time 100000 1 100000 v_PE1

dump trjectory all xyz 10000 movie.xyz
dump_modify trjectory element O H K Cl

run 100000
PPPM initialization ...
  extracting TIP4P info from pair style
  G vector (1/distance) = 0.309655
  grid = 30 30 30
  stencil order = 5
  estimated absolute RMS force accuracy = 0.00382271
  estimated relative force accuracy = 1.1512e-05
  3d grid and FFT values/proc = 2475 256
Temp PotEng KinEng TotEng
Loop time of 88.1311 on 128 procs for 100000 steps with 3152 atoms

reset_timestep 0

undump trjectory

#################### 3) Simulating transport properties in NVT ensmeble ######################

unfix Tave1
unfix TEave1
unfix KEave1
unfix PEave1
variable T1 delete
variable TE1 delete
variable KE1 delete
variable PE1 delete

# computing average total energy, pontential energy, temperature, and pressure over time
variable TotEn equal etotal
fix TEAve all ave/time 10 1000 10000 v_TotEn file TotalE.dat

variable PotEn equal pe
fix PEAve all ave/time 10 1000 10000 v_PotEn file PotenE.dat

compute T all temp
fix TempAve all ave/time 10 1000 10000 c_T file temperature.dat

compute P all pressure T
fix PressAve all ave/time 10 1000 10000 c_P file pressure.dat

# computing self-diffusion and Onsager coefficients using the OCTP plugin
compute positions all position
fix f3 all ordern diffusivity 1000 100000 c_positions nb 10 nbe 20 file diffself.dat diffonsag.dat

# computing shear and bulk viscosities  using the OCTP plugin
fix f1 all ordern viscosity 5 100000 c_P nb 10 nbe 20 file viscosity.dat

# computing the RDF for all group pairs
compute rdfs all rdf/ext Nbin 2000 Nwrite 1000 file rdf.dat
fix f4 all ave/time 1 1 100 c_rdfs

# Thermo style for outputing system properties to the log file
thermo_style custom step temp f_TempAve press f_PressAve pe ke etotal
thermo_modify flush yes

run 100000000
PPPM initialization ...
  extracting TIP4P info from pair style
  G vector (1/distance) = 0.309655
  grid = 30 30 30
  stencil order = 5
  estimated absolute RMS force accuracy = 0.00382271
  estimated relative force accuracy = 1.1512e-05
  3d grid and FFT values/proc = 2475 256
Step Temp f_TempAve Press f_PressAve PotEng KinEng TotEng
0    301.00925            0    155.30388            0   -19123.824    1929.9878   -17193.836
Averages over the last 5001 of 10001 rows, steps 50000000 to 100000000:
Temp f_TempAve Press f_PressAve PotEng KinEng TotEng
298.005 297.996 -6.732 -4.39306 -19084.5 1910.72 -17173.8
Loop time of 91159.7 on 128 procs for 100000000 steps with 3152 atoms

quit
