LAMMPS (16 Mar 2018)
####################################################
# Preprocessing Li2SO4 in water
#################### SETTING UP ####################
units real
dimension 3
newton on
boundary p p p
atom_style full

#################### VARIABLES ####################
variable Temp equal 298.15    # Temperature in K
variable Pres equal 1    # Pressure in atm.

variable RandomSeed equal 48 # The random seed for velocity
variable tstep equal 1 # timestep in fs

#################### NPT ####################
variable Ninptpre equal 10000 # Pre-initialize the NPT ensemble (very small timesteps)
variable Ninpt equal 5000000  # Initialize the NPT ensemble
variable Npnpt equal 5000000  # Production in the NPT ensemble (volume)

#################### NVT ####################
variable Ninvtpre equal 10000  # Pre-initialize the NVT ensemble (very small timesteps)
variable Ninvt equal 2500000   # Initialize the NVT ensemble 2.5Mstep
variable Nrun1 equal 250000  # production in the NVT ensemble (Transport properties)
variable Nrun2 equal 1000000  # production in the NVT ensemble (Transport properties)
variable Nrun3 equal 2500000  # production in the NVT ensemble (Transport properties)
variable Nrun4 equal 5000000  # production in the NVT ensemble (Transport properties)

variable Nf equal 100000      # Nfreq (fix ave/time and thermo)
variable Ne equal  1          # Nevery (fix ave/time)
variable Nr equal 100000/1
variable Nd equal 100000
variable NBR equal 5000000/100

variable nb equal 10          # Number of blocks (fix ordern)
variable nbe equal 20         # Number of block elements (fix ordern)
variable Nvisc equal 5        # Nevery for viscosity (fix ordern: sample data at (Nvisc*2))
variable Ncond equal 5        # Nevery for Tconductivity (fix ordern: sample data at (Ncond*2))
variable Ndiff equal 1000     # Nevery for diffusivity (fix ordern: sample data at (Ndiff))
variable Nwrit equal 100000   # Nwrite for transport properties (fix ordern: write every (Nwrit))

variable Nrdfe equal 1000     # Nevery for RDF (fix ave/time)
variable Nrdfw equal 1000     # Nwrite for RDF (compute rdf/ext: write every (Nrdfw*Nrdfe))
variable binnum equal 2000    # Number of bins for RDF

#################### ATOM DEFINITION and FORCEFIELD ####################
read_data ./data.lmp                     # read the positions
  orthogonal box = (0 0 0) to (25.8482 25.8482 25.8482)
  reading atoms ...
  1572 atoms
  scanning bonds ...
  scanning angles ...
  reading bonds ...
  1000 bonds
  reading angles ...
  500 angles
include ./forcefield.data                # read the force field
#--------INTERMOLECULAR POTENTIAL -------------------#
# --------Developed for MadridT KCl + TIP4P/2005-----#

mass 1 15.9994	# Ow
mass 2 1.008	# Hw
mass 3 39.0983	# K
mass 4 35.453	# Cl

pair_style lj/cut/tip4p/long 1 2 1 1 0.1546 10.0
kspace_style pppm/tip4p 1.0e-5
pair_modify mix arithmetic tail yes # ATC and Lorentz-Berthelot combining rules

#-----------------Combinations----------------------------
# atomtype atomtype epsilon sigma

pair_coeff 1 1 0.185200 3.15890    # Ow-Ow
pair_coeff 1 2 0.000000 0.00000    # Ow-Hw
pair_coeff 1 3 0.334711 2.89540    # Ow-K
pair_coeff 1 4 0.014814 4.07631    # Ow-Cl

pair_coeff 2 2 0.000000 0.00000    # Hw-Hw
pair_coeff 2 3 0.000000 0.00000    # Hw-K
pair_coeff 2 4 0.000000 0.00000    # Hw-Cl

pair_coeff 3 3 0.474603 3.41700    # K-K
pair_coeff 3 4 0.334608 3.41700    # K-Cl

pair_coeff 4 4 0.018385 4.69906    # Cl-Cl

bond_style  harmonic
bond_coeff 1 2000 0.9572           # Ow-Hw

angle_style harmonic
angle_coeff 1 200 104.52           # H-Ow-H

#dihedral_style none
#improper_style none

set type 1 charge -1.1128          # O
  500 settings made for charge
set type 2 charge +0.5564          # OH
  1000 settings made for charge
set type 3 charge +0.7500          # K
  36 settings made for charge
set type 4 charge -0.7500          # Cl
  36 settings made for charge

#################### INITIALIZATION ####################
group wat type 1		# O water
500 atoms in group wat
group K type 3			# Potasium ion
36 atoms in group K
group Cl type 4			# Chlorine ion
36 atoms in group Cl

# neigbor lists
neighbor 2.0 bin
neigh_modify every 1 delay 0 check yes

# velocity-Verlet integrator
run_style verlet

# initializing velocities
velocity all create 298.15 48

# rate of writing thermal properties to the log file
thermo_style custom step density temp press etotal
thermo_modify flush yes
thermo 100000

#################### 2) Initialize the NPT ensemble ####################
######### Go to the correct temperature now ant initiate that ##########
fix constrain all shake 1.0e-6 1000 0 b 1 a 1
fix integrate all npt temp 298.15 298.15 10.0 iso 1 1 100.0

# Initializing the whole system with very small timesteps in the NPT ensemble
timestep 0.001
run 10000
PPPM initialization ...
  extracting TIP4P info from pair style
  G vector (1/distance) = 0.309797
  grid = 24 24 24
  stencil order = 5
  estimated absolute RMS force accuracy = 0.00375155
  estimated relative force accuracy = 1.12977e-05
  3d grid and FFT values/proc = 5415 1152
  update every 1 steps, delay 0 steps, check yes
Step Density Temp Press TotEng
0    1.1241608    437.34234    2609236.2    2311.9202
Loop time of 39.7621 on 12 procs for 10000 steps with 1572 atoms

timestep 0.01
run 10000
PPPM initialization ...
  extracting TIP4P info from pair style
  G vector (1/distance) = 0.310446
  grid = 25 25 25
  stencil order = 5
  estimated absolute RMS force accuracy = 0.00343529
  estimated relative force accuracy = 1.03453e-05
  3d grid and FFT values/proc = 6400 1875
Step Density Temp Press TotEng
10000     1.021881     1126.377    1436257.5    358.21823
Loop time of 41.4872 on 12 procs for 10000 steps with 1572 atoms

timestep 0.1
run 10000
PPPM initialization ...
  extracting TIP4P info from pair style
  G vector (1/distance) = 0.310507
  grid = 24 24 24
  stencil order = 5
  estimated absolute RMS force accuracy = 0.00364316
  estimated relative force accuracy = 1.09713e-05
  3d grid and FFT values/proc = 5415 1152
Step Density Temp Press TotEng
20000     1.157833    295.28995   -22173.004   -7241.6518
Loop time of 43.0284 on 12 procs for 10000 steps with 1572 atoms

timestep 0.2
run 10000
PPPM initialization ...
  extracting TIP4P info from pair style
  G vector (1/distance) = 0.311149
  grid = 24 24 24
  stencil order = 5
  estimated absolute RMS force accuracy = 0.00354761
  estimated relative force accuracy = 1.06835e-05
  3d grid and FFT values/proc = 5415 1152
Step Density Temp Press TotEng
30000    1.1892545     304.5802    4419.7139   -8290.5862
Loop time of 43.324 on 12 procs for 10000 steps with 1572 atoms

timestep 0.5
run 10000
PPPM initialization ...
  extracting TIP4P info from pair style
  G vector (1/distance) = 0.310477
  grid = 24 24 24
  stencil order = 5
  estimated absolute RMS force accuracy = 0.00364773
  estimated relative force accuracy = 1.0985e-05
  3d grid and FFT values/proc = 5415 1152
Step Density Temp Press TotEng
40000    1.1563722    313.09261    257.53607   -8336.6442
Loop time of 44.0326 on 12 procs for 10000 steps with 1572 atoms

reset_timestep 0

# continuing the initialization with the final value of timestep
unfix integrate
fix integrate all npt temp 298.15 298.15 100.0 iso 1 1 1000.0

timestep 1

run 5000000
PPPM initialization ...
  extracting TIP4P info from pair style
  G vector (1/distance) = 0.310356
  grid = 24 24 24
  stencil order = 5
  estimated absolute RMS force accuracy = 0.003666
  estimated relative force accuracy = 1.104e-05
  3d grid and FFT values/proc = 5415 1152
Step Density Temp Press TotEng
0    1.1505702    302.45597   -339.43882   -8410.2023
Averages over the last 26 of 51 rows, steps 2500000 to 5000000:
Density Temp Press TotEng
1.14855 295.518 -58.3822 -8403.27
Loop time of 22352.6 on 12 procs for 5000000 steps with 1572 atoms

reset_timestep 0

#################### 3) Obtaining average volume in NPT ######################
# Creating restart files
restart 100000 1.restart 2.restart

# Getting the average volume of the system
variable Volume equal vol
fix VoluAve all ave/time 1 5000000 5000000 v_Volume file volume.dat

variable Dens equal density
fix DensAve all ave/time 1 50000 50000 v_Dens file density.dat

compute T1 all temp
fix TempAve1 all ave/time 1 50000 50000 c_T1 file temperatureNPT.dat

compute P1 all pressure T1
fix PressAve1 all ave/time 1 50000 50000 c_P1 file pressureNPT.dat

run 5000000
PPPM initialization ...
  extracting TIP4P info from pair style
  G vector (1/distance) = 0.310611
  grid = 24 24 24
  stencil order = 5
  estimated absolute RMS force accuracy = 0.00362751
  estimated relative force accuracy = 1.09241e-05
  3d grid and FFT values/proc = 5415 1152
Step Density Temp Press TotEng
0    1.1628641    307.10304    446.11336   -8392.1281
Averages over the last 26 of 51 rows, steps 2500000 to 5000000:
Density Temp Press TotEng
1.15311 298.419 65.8922 -8407.66
Loop time of 22577 on 12 procs for 5000000 steps with 1572 atoms

#################### 4) Initializing the NVT ensemble ####################
# scaling the size of the system to the average volume
variable sidesize equal (f_VoluAve^(1.0/3.0))    # get the volume
variable xlow equal xlo
variable ylow equal ylo
variable zlow equal zlo
variable xhig equal (xlo+25.633018126874)
variable yhig equal (ylo+25.633018126874)
variable zhig equal (zlo+25.633018126874)
change_box all x final 0.132504869413305 25.7655229962873 y final 0.132504869413305 25.7655229962873 z final 0.132504869413305 25.7655229962873
  orthogonal box = (0.132505 0.132505 0.132505) to (25.7655 25.7157 25.7157)
  orthogonal box = (0.132505 0.132505 0.132505) to (25.7655 25.7655 25.7157)
  orthogonal box = (0.132505 0.132505 0.132505) to (25.7655 25.7655 25.7655)
unfix DensAve
unfix VoluAve
unfix TempAve1
unfix PressAve1

# changing the ensemble to NVT
unfix integrate
fix integrate all nvt temp 298.15 298.15 10.0

timestep 0.001
run 10000
PPPM initialization ...
  extracting TIP4P info from pair style
  G vector (1/distance) = 0.310401
  grid = 24 24 24
  stencil order = 5
  estimated absolute RMS force accuracy = 0.00365923
  estimated relative force accuracy = 1.10196e-05
  3d grid and FFT values/proc = 5415 1152
Step Density Temp Press TotEng
5000000    1.1527146    294.77827   -40088.213   -8447.6991
Loop time of 30.0513 on 12 procs for 10000 steps with 1572 atoms

timestep 0.01
run 10000
PPPM initialization ...
  extracting TIP4P info from pair style
  G vector (1/distance) = 0.310401
  grid = 24 24 24
  stencil order = 5
  estimated absolute RMS force accuracy = 0.00365923
  estimated relative force accuracy = 1.10196e-05
  3d grid and FFT values/proc = 5415 1152
Step Density Temp Press TotEng
5010000    1.1527146    301.55683   -167.97504   -8404.9197
Loop time of 30.3914 on 12 procs for 10000 steps with 1572 atoms

timestep 0.1
run 10000
PPPM initialization ...
  extracting TIP4P info from pair style
  G vector (1/distance) = 0.310401
  grid = 24 24 24
  stencil order = 5
  estimated absolute RMS force accuracy = 0.00365923
  estimated relative force accuracy = 1.10196e-05
  3d grid and FFT values/proc = 5415 1152
Step Density Temp Press TotEng
5020000    1.1527146    307.83721   -795.32988   -8400.1706
Loop time of 30.1899 on 12 procs for 10000 steps with 1572 atoms

timestep 0.2
run 10000
PPPM initialization ...
  extracting TIP4P info from pair style
  G vector (1/distance) = 0.310401
  grid = 24 24 24
  stencil order = 5
  estimated absolute RMS force accuracy = 0.00365923
  estimated relative force accuracy = 1.10196e-05
  3d grid and FFT values/proc = 5415 1152
Step Density Temp Press TotEng
5030000    1.1527146    294.77821    -706.2819   -8437.9899
Loop time of 30.8285 on 12 procs for 10000 steps with 1572 atoms

timestep 0.5
run 10000
PPPM initialization ...
  extracting TIP4P info from pair style
  G vector (1/distance) = 0.310401
  grid = 24 24 24
  stencil order = 5
  estimated absolute RMS force accuracy = 0.00365923
  estimated relative force accuracy = 1.10196e-05
  3d grid and FFT values/proc = 5415 1152
Step Density Temp Press TotEng
5040000    1.1527146    291.11204    1023.8393   -8467.1225
Loop time of 31.5555 on 12 procs for 10000 steps with 1572 atoms

unfix integrate
fix integrate all nvt temp 298.15 298.15 100.0
# continuing the initialization with the final value of timestep
timestep 1

run 2500000
PPPM initialization ...
  extracting TIP4P info from pair style
  G vector (1/distance) = 0.310401
  grid = 24 24 24
  stencil order = 5
  estimated absolute RMS force accuracy = 0.00365923
  estimated relative force accuracy = 1.10196e-05
  3d grid and FFT values/proc = 5415 1152
Step Density Temp Press TotEng
5050000    1.1527146      281.186    325.75892    -8464.448
Averages over the last 14 of 27 rows, steps 6300000 to 7550000:
Density Temp Press TotEng
1.15271 297.962 21.2098 -8400.7
Loop time of 7998.03 on 12 procs for 2500000 steps with 1572 atoms

reset_timestep 0

#################### 2) Production in NVT ensemble #####################
# computing average total energy, pontential energy, temperature, and pressure over time
variable TotEn equal etotal
fix TEAve all ave/time 1 100000 100000 v_TotEn file TotalE.dat

variable PotEn equal pe
fix PEAve all ave/time 1 100000 100000 v_PotEn file PotenE.dat

compute T all temp
fix TempAve all ave/time 1 100000 100000 c_T file temperature.dat

compute P all pressure T
fix PressAve all ave/time 1 100000 100000 c_P file pressure.dat

# computing self-diffusion and Onsager coefficients using the OCTP plugin
compute positions all position
fix f1 all ordern diffusivity 1000 100000 c_positions nb 10 nbe 20

# computing shear and bulk viscosities  using the OCTP plugin
fix f2 all ordern viscosity 5 100000 c_P nb 10 nbe 20

# computing thermal conductivity using the OCTP plugin
compute KE all ke/atom
compute PE all pe/atom
compute ST all stress/atom NULL virial
compute heatflux all heat/flux KE PE ST
fix f3 all ordern thermalconductivity 5 100000 c_heatflux nb 10 nbe 20

# computing the RDF for all group pairs
compute rdfs all rdf/ext Nbin 2000 Nwrite 1000
fix f4 all ave/time 1 1 1000 c_rdfs

dump trjectory all xyz 100000 movie.xyz
dump_modify trjectory element Ow H K Cl

run 250000
PPPM initialization ...
  extracting TIP4P info from pair style
  G vector (1/distance) = 0.310401
  grid = 24 24 24
  stencil order = 5
  estimated absolute RMS force accuracy = 0.00365923
  estimated relative force accuracy = 1.10196e-05
  3d grid and FFT values/proc = 5415 1152
Step Density Temp Press TotEng
0    1.1527146    293.89615    498.78957   -8422.9944
Loop time of 1249.75 on 12 procs for 250000 steps with 1572 atoms

shell bash copy_files.sh dt_1 00.25Mstep

run 250000
PPPM initialization ...
  extracting TIP4P info from pair style
  G vector (1/distance) = 0.310401
  grid = 24 24 24
  stencil order = 5
  estimated absolute RMS force accuracy = 0.00365923
  estimated relative force accuracy = 1.10196e-05
  3d grid and FFT values/proc = 5415 1152
Step Density Temp Press TotEng
250000    1.1527146    309.37623    294.45122    -8334.865
Loop time of 1260.38 on 12 procs for 250000 steps with 1572 atoms

shell bash copy_files.sh dt_1 00.50Mstep

run 250000
PPPM initialization ...
  extracting TIP4P info from pair style
  G vector (1/distance) = 0.310401
  grid = 24 24 24
  stencil order = 5
  estimated absolute RMS force accuracy = 0.00365923
  estimated relative force accuracy = 1.10196e-05
  3d grid and FFT values/proc = 5415 1152
Step Density Temp Press TotEng
500000    1.1527146     297.2414   -34.793854   -8322.3656
Loop time of 1256.91 on 12 procs for 250000 steps with 1572 atoms

shell bash copy_files.sh dt_1 00.75Mstep

run 250000
PPPM initialization ...
  extracting TIP4P info from pair style
  G vector (1/distance) = 0.310401
  grid = 24 24 24
  stencil order = 5
  estimated absolute RMS force accuracy = 0.00365923
  estimated relative force accuracy = 1.10196e-05
  3d grid and FFT values/proc = 5415 1152
Step Density Temp Press TotEng
750000    1.1527146    298.47008     978.8835   -8363.6055
Loop time of 1251.9 on 12 procs for 250000 steps with 1572 atoms

shell bash copy_files.sh dt_1 01.00Mstep

run 250000
PPPM initialization ...
  extracting TIP4P info from pair style
  G vector (1/distance) = 0.310401
  grid = 24 24 24
  stencil order = 5
  estimated absolute RMS force accuracy = 0.00365923
  estimated relative force accuracy = 1.10196e-05
  3d grid and FFT values/proc = 5415 1152
Step Density Temp Press TotEng
1000000    1.1527146    298.58965   -581.64448   -8375.6647
Loop time of 1253.44 on 12 procs for 250000 steps with 1572 atoms

shell bash copy_files.sh dt_1 01.25Mstep

run 250000
PPPM initialization ...
  extracting TIP4P info from pair style
  G vector (1/distance) = 0.310401
  grid = 24 24 24
  stencil order = 5
  estimated absolute RMS force accuracy = 0.00365923
  estimated relative force accuracy = 1.10196e-05
  3d grid and FFT values/proc = 5415 1152
Step Density Temp Press TotEng
1250000    1.1527146    298.44557   -930.26329   -8463.5685
Loop time of 1241.26 on 12 procs for 250000 steps with 1572 atoms

shell bash copy_files.sh dt_1 01.50Mstep

run 250000
PPPM initialization ...
  extracting TIP4P info from pair style
  G vector (1/distance) = 0.310401
  grid = 24 24 24
  stencil order = 5
  estimated absolute RMS force accuracy = 0.00365923
  estimated relative force accuracy = 1.10196e-05
  3d grid and FFT values/proc = 5415 1152
Step Density Temp Press TotEng
1500000    1.1527146    303.53445    650.71336   -8417.3117
Loop time of 1249.11 on 12 procs for 250000 steps with 1572 atoms

shell bash copy_files.sh dt_1 01.75Mstep

run 250000
PPPM initialization ...
  extracting TIP4P info from pair style
  G vector (1/distance) = 0.310401
  grid = 24 24 24
  stencil order = 5
  estimated absolute RMS force accuracy = 0.00365923
  estimated relative force accuracy = 1.10196e-05
  3d grid and FFT values/proc = 5415 1152
Step Density Temp Press TotEng
1750000    1.1527146    290.41282   -73.289962   -8405.7919
Loop time of 1269.08 on 12 procs for 250000 steps with 1572 atoms

shell bash copy_files.sh dt_1 02.00step

run 1000000
PPPM initialization ...
  extracting TIP4P info from pair style
  G vector (1/distance) = 0.310401
  grid = 24 24 24
  stencil order = 5
  estimated absolute RMS force accuracy = 0.00365923
  estimated relative force accuracy = 1.10196e-05
  3d grid and FFT values/proc = 5415 1152
Step Density Temp Press TotEng
2000000    1.1527146    296.71739    -698.9782   -8405.7814
Averages over the last 6 of 11 rows, steps 2500000 to 3000000:
Density Temp Press TotEng
1.15271 300.176 -322.006 -8392.49
Loop time of 5002.39 on 12 procs for 1000000 steps with 1572 atoms

shell bash copy_files.sh dt_1 03.00Mstep

run 1000000
PPPM initialization ...
  extracting TIP4P info from pair style
  G vector (1/distance) = 0.310401
  grid = 24 24 24
  stencil order = 5
  estimated absolute RMS force accuracy = 0.00365923
  estimated relative force accuracy = 1.10196e-05
  3d grid and FFT values/proc = 5415 1152
Step Density Temp Press TotEng
3000000    1.1527146    306.86273    415.50874   -8379.5827
Averages over the last 6 of 11 rows, steps 3500000 to 4000000:
Density Temp Press TotEng
1.15271 297.486 -540.496 -8404.45
Loop time of 5023.25 on 12 procs for 1000000 steps with 1572 atoms

shell bash copy_files.sh dt_1 04.00Mstep

run 1000000
PPPM initialization ...
  extracting TIP4P info from pair style
  G vector (1/distance) = 0.310401
  grid = 24 24 24
  stencil order = 5
  estimated absolute RMS force accuracy = 0.00365923
  estimated relative force accuracy = 1.10196e-05
  3d grid and FFT values/proc = 5415 1152
Step Density Temp Press TotEng
4000000    1.1527146     293.3147   -595.16105   -8423.2189
Averages over the last 6 of 11 rows, steps 4500000 to 5000000:
Density Temp Press TotEng
1.15271 294.78 -156.097 -8428.39
Loop time of 4990.1 on 12 procs for 1000000 steps with 1572 atoms

shell bash copy_files.sh dt_1 05.00Mstep

run 1000000
PPPM initialization ...
  extracting TIP4P info from pair style
  G vector (1/distance) = 0.310401
  grid = 24 24 24
  stencil order = 5
  estimated absolute RMS force accuracy = 0.00365923
  estimated relative force accuracy = 1.10196e-05
  3d grid and FFT values/proc = 5415 1152
Step Density Temp Press TotEng
5000000    1.1527146    300.86799    632.68228   -8354.3682
Averages over the last 6 of 11 rows, steps 5500000 to 6000000:
Density Temp Press TotEng
1.15271 301.712 106.792 -8385.39
Loop time of 4985.08 on 12 procs for 1000000 steps with 1572 atoms

shell bash copy_files.sh dt_1 06.00Mstep

run 1000000
PPPM initialization ...
  extracting TIP4P info from pair style
  G vector (1/distance) = 0.310401
  grid = 24 24 24
  stencil order = 5
  estimated absolute RMS force accuracy = 0.00365923
  estimated relative force accuracy = 1.10196e-05
  3d grid and FFT values/proc = 5415 1152
Step Density Temp Press TotEng
6000000    1.1527146    308.12008    164.42587   -8324.4792
Averages over the last 6 of 11 rows, steps 6500000 to 7000000:
Density Temp Press TotEng
1.15271 296.127 -308.922 -8407.24
Loop time of 5021.12 on 12 procs for 1000000 steps with 1572 atoms

shell bash copy_files.sh dt_1 07.00Mstep

run 1000000
PPPM initialization ...
  extracting TIP4P info from pair style
  G vector (1/distance) = 0.310401
  grid = 24 24 24
  stencil order = 5
  estimated absolute RMS force accuracy = 0.00365923
  estimated relative force accuracy = 1.10196e-05
  3d grid and FFT values/proc = 5415 1152
Step Density Temp Press TotEng
7000000    1.1527146    287.07696     -253.748   -8408.3059
Averages over the last 6 of 11 rows, steps 7500000 to 8000000:
Density Temp Press TotEng
1.15271 299.299 318.929 -8414.76
Loop time of 4996.93 on 12 procs for 1000000 steps with 1572 atoms

shell bash copy_files.sh dt_1 08.00Mstep

run 1000000
PPPM initialization ...
  extracting TIP4P info from pair style
  G vector (1/distance) = 0.310401
  grid = 24 24 24
  stencil order = 5
  estimated absolute RMS force accuracy = 0.00365923
  estimated relative force accuracy = 1.10196e-05
  3d grid and FFT values/proc = 5415 1152
Step Density Temp Press TotEng
8000000    1.1527146    299.85744   -266.75945    -8473.056
Averages over the last 6 of 11 rows, steps 8500000 to 9000000:
Density Temp Press TotEng
1.15271 294.482 -113.005 -8394.35
Loop time of 4991.07 on 12 procs for 1000000 steps with 1572 atoms

shell bash copy_files.sh dt_1 09.00Mstep

run 1000000
PPPM initialization ...
  extracting TIP4P info from pair style
  G vector (1/distance) = 0.310401
  grid = 24 24 24
  stencil order = 5
  estimated absolute RMS force accuracy = 0.00365923
  estimated relative force accuracy = 1.10196e-05
  3d grid and FFT values/proc = 5415 1152
Step Density Temp Press TotEng
9000000    1.1527146    295.45831   -331.14443   -8409.7598
Averages over the last 6 of 11 rows, steps 9500000 to 10000000:
Density Temp Press TotEng
1.15271 297.127 53.1395 -8415.91
Loop time of 5022.12 on 12 procs for 1000000 steps with 1572 atoms

shell bash copy_files.sh dt_1 10.00Mstep

run 2500000
PPPM initialization ...
  extracting TIP4P info from pair style
  G vector (1/distance) = 0.310401
  grid = 24 24 24
  stencil order = 5
  estimated absolute RMS force accuracy = 0.00365923
  estimated relative force accuracy = 1.10196e-05
  3d grid and FFT values/proc = 5415 1152
Step Density Temp Press TotEng
10000000    1.1527146    297.93051    809.25368   -8395.9835
Averages over the last 13 of 26 rows, steps 11300000 to 12500000:
Density Temp Press TotEng
1.15271 295.719 -31.3713 -8412.03
Loop time of 12510 on 12 procs for 2500000 steps with 1572 atoms

shell bash copy_files.sh dt_1 12.50Mstep

run 2500000
PPPM initialization ...
  extracting TIP4P info from pair style
  G vector (1/distance) = 0.310401
  grid = 24 24 24
  stencil order = 5
  estimated absolute RMS force accuracy = 0.00365923
  estimated relative force accuracy = 1.10196e-05
  3d grid and FFT values/proc = 5415 1152
Step Density Temp Press TotEng
12500000    1.1527146    291.15352    109.39719   -8437.8446
Averages over the last 13 of 26 rows, steps 13800000 to 15000000:
Density Temp Press TotEng
1.15271 300.814 -271.63 -8399.2
Loop time of 12461.2 on 12 procs for 2500000 steps with 1572 atoms

shell bash copy_files.sh dt_1 15.00Mstep

run 2500000
PPPM initialization ...
  extracting TIP4P info from pair style
  G vector (1/distance) = 0.310401
  grid = 24 24 24
  stencil order = 5
  estimated absolute RMS force accuracy = 0.00365923
  estimated relative force accuracy = 1.10196e-05
  3d grid and FFT values/proc = 5415 1152
Step Density Temp Press TotEng
15000000    1.1527146    307.53906    438.20784    -8399.708
Averages over the last 13 of 26 rows, steps 16300000 to 17500000:
Density Temp Press TotEng
1.15271 298.969 50.1583 -8414.53
Loop time of 12486.3 on 12 procs for 2500000 steps with 1572 atoms

shell bash copy_files.sh dt_1 17.50Mstep

run 2500000
PPPM initialization ...
  extracting TIP4P info from pair style
  G vector (1/distance) = 0.310401
  grid = 24 24 24
  stencil order = 5
  estimated absolute RMS force accuracy = 0.00365923
  estimated relative force accuracy = 1.10196e-05
  3d grid and FFT values/proc = 5415 1152
Step Density Temp Press TotEng
17500000    1.1527146    290.44014   -485.90342   -8385.4215
Averages over the last 13 of 26 rows, steps 18800000 to 20000000:
Density Temp Press TotEng
1.15271 298.992 -90.5066 -8404.63
Loop time of 12517.2 on 12 procs for 2500000 steps with 1572 atoms

shell bash copy_files.sh dt_1 20.00Mstep

run 5000000
PPPM initialization ...
  extracting TIP4P info from pair style
  G vector (1/distance) = 0.310401
  grid = 24 24 24
  stencil order = 5
  estimated absolute RMS force accuracy = 0.00365923
  estimated relative force accuracy = 1.10196e-05
  3d grid and FFT values/proc = 5415 1152
Step Density Temp Press TotEng
20000000    1.1527146    301.94031    100.62483   -8389.7535
Averages over the last 26 of 51 rows, steps 22500000 to 25000000:
Density Temp Press TotEng
1.15271 299.117 29.4538 -8404.07
Loop time of 24856.2 on 12 procs for 5000000 steps with 1572 atoms

shell bash copy_files.sh dt_1 25.00Mstep

run 5000000
PPPM initialization ...
  extracting TIP4P info from pair style
  G vector (1/distance) = 0.310401
  grid = 24 24 24
  stencil order = 5
  estimated absolute RMS force accuracy = 0.00365923
  estimated relative force accuracy = 1.10196e-05
  3d grid and FFT values/proc = 5415 1152
Step Density Temp Press TotEng
25000000    1.1527146    304.39024    37.657076   -8403.2949
Averages over the last 26 of 51 rows, steps 27500000 to 30000000:
Density Temp Press TotEng
1.15271 298.837 66.6487 -8417.48
Loop time of 24988.3 on 12 procs for 5000000 steps with 1572 atoms

shell bash copy_files.sh dt_1 30.00Mstep

run 5000000
PPPM initialization ...
  extracting TIP4P info from pair style
  G vector (1/distance) = 0.310401
  grid = 24 24 24
  stencil order = 5
  estimated absolute RMS force accuracy = 0.00365923
  estimated relative force accuracy = 1.10196e-05
  3d grid and FFT values/proc = 5415 1152
Step Density Temp Press TotEng
30000000    1.1527146    290.62089    429.14444   -8447.0334
Averages over the last 19 of 38 rows, steps 31900000 to 33700000:
Density Temp Press TotEng
1.15271 297.117 -5.05465 -8404.46
