LAMMPS (16 Mar 2018)
####################################################
# Preprocessing Li2SO4 in water
#################### SETTING UP ####################
units real
dimension 3
newton on
boundary p p p
atom_style full

#################### VARIABLES ####################
variable Temp equal 298.15    # Temperature in K
variable Pres equal 1    # Pressure in atm.

variable RandomSeed equal 92 # The random seed for velocity
variable tstep equal 2 # timestep in fs

#################### NPT ####################
variable Ninptpre equal 10000 # Pre-initialize the NPT ensemble (very small timesteps)
variable Ninpt equal 5000000  # Initialize the NPT ensemble
variable Npnpt equal 5000000  # Production in the NPT ensemble (volume)

#################### NVT ####################
variable Ninvtpre equal 10000  # Pre-initialize the NVT ensemble (very small timesteps)
variable Ninvt equal 2500000   # Initialize the NVT ensemble 2.5Mstep
variable Nrun1 equal 250000  # production in the NVT ensemble (Transport properties)
variable Nrun2 equal 1000000  # production in the NVT ensemble (Transport properties)
variable Nrun3 equal 2500000  # production in the NVT ensemble (Transport properties)
variable Nrun4 equal 5000000  # production in the NVT ensemble (Transport properties)

variable Nf equal 100000      # Nfreq (fix ave/time and thermo)
variable Ne equal  1          # Nevery (fix ave/time)
variable Nr equal 100000/1
variable Nd equal 100000
variable NBR equal 5000000/100

variable nb equal 10          # Number of blocks (fix ordern)
variable nbe equal 20         # Number of block elements (fix ordern)
variable Nvisc equal 5        # Nevery for viscosity (fix ordern: sample data at (Nvisc*2))
variable Ncond equal 5        # Nevery for Tconductivity (fix ordern: sample data at (Ncond*2))
variable Ndiff equal 1000     # Nevery for diffusivity (fix ordern: sample data at (Ndiff))
variable Nwrit equal 100000   # Nwrite for transport properties (fix ordern: write every (Nwrit))

variable Nrdfe equal 1000     # Nevery for RDF (fix ave/time)
variable Nrdfw equal 1000     # Nwrite for RDF (compute rdf/ext: write every (Nrdfw*Nrdfe))
variable binnum equal 2000    # Number of bins for RDF

#################### ATOM DEFINITION and FORCEFIELD ####################
read_data ./data.lmp                     # read the positions
  orthogonal box = (0 0 0) to (25.8482 25.8482 25.8482)
  reading atoms ...
  1572 atoms
  scanning bonds ...
  scanning angles ...
  reading bonds ...
  1000 bonds
  reading angles ...
  500 angles
include ./forcefield.data                # read the force field
#--------INTERMOLECULAR POTENTIAL -------------------#
# --------Developed for MadridT KCl + TIP4P/2005-----#

mass 1 15.9994	# Ow
mass 2 1.008	# Hw
mass 3 39.0983	# K
mass 4 35.453	# Cl

pair_style lj/cut/tip4p/long 1 2 1 1 0.1546 10.0
kspace_style pppm/tip4p 1.0e-5
pair_modify mix arithmetic tail yes # ATC and Lorentz-Berthelot combining rules

#-----------------Combinations----------------------------
# atomtype atomtype epsilon sigma

pair_coeff 1 1 0.185200 3.15890    # Ow-Ow
pair_coeff 1 2 0.000000 0.00000    # Ow-Hw
pair_coeff 1 3 0.334711 2.89540    # Ow-K
pair_coeff 1 4 0.014814 4.07631    # Ow-Cl

pair_coeff 2 2 0.000000 0.00000    # Hw-Hw
pair_coeff 2 3 0.000000 0.00000    # Hw-K
pair_coeff 2 4 0.000000 0.00000    # Hw-Cl

pair_coeff 3 3 0.474603 3.41700    # K-K
pair_coeff 3 4 0.334608 3.41700    # K-Cl

pair_coeff 4 4 0.018385 4.69906    # Cl-Cl

bond_style  harmonic
bond_coeff 1 2000 0.9572           # Ow-Hw

angle_style harmonic
angle_coeff 1 200 104.52           # H-Ow-H

#dihedral_style none
#improper_style none

set type 1 charge -1.1128          # O
  500 settings made for charge
set type 2 charge +0.5564          # OH
  1000 settings made for charge
set type 3 charge +0.7500          # K
  36 settings made for charge
set type 4 charge -0.7500          # Cl
  36 settings made for charge

#################### INITIALIZATION ####################
group wat type 1		# O water
500 atoms in group wat
group K type 3			# Potasium ion
36 atoms in group K
group Cl type 4			# Chlorine ion
36 atoms in group Cl

# neigbor lists
neighbor 2.0 bin
neigh_modify every 1 delay 0 check yes

# velocity-Verlet integrator
run_style verlet

# initializing velocities
velocity all create 298.15 92

# rate of writing thermal properties to the log file
thermo_style custom step density temp press etotal
thermo_modify flush yes
thermo 100000

#################### 2) Initialize the NPT ensemble ####################
######### Go to the correct temperature now ant initiate that ##########
fix constrain all shake 1.0e-6 1000 0 b 1 a 1
fix integrate all npt temp 298.15 298.15 10.0 iso 1 1 100.0

# Initializing the whole system with very small timesteps in the NPT ensemble
timestep 0.001
run 10000
PPPM initialization ...
  extracting TIP4P info from pair style
  G vector (1/distance) = 0.309797
  grid = 24 24 24
  stencil order = 5
  estimated absolute RMS force accuracy = 0.00375155
  estimated relative force accuracy = 1.12977e-05
  3d grid and FFT values/proc = 5415 1152
  update every 1 steps, delay 0 steps, check yes
Step Density Temp Press TotEng
0    1.1241608    437.34234    521450.98    2311.9202
Loop time of 39.4921 on 12 procs for 10000 steps with 1572 atoms

timestep 0.01
run 10000
PPPM initialization ...
  extracting TIP4P info from pair style
  G vector (1/distance) = 0.310445
  grid = 25 25 25
  stencil order = 5
  estimated absolute RMS force accuracy = 0.00343538
  estimated relative force accuracy = 1.03455e-05
  3d grid and FFT values/proc = 6400 1875
Step Density Temp Press TotEng
10000    1.0218562    1128.9863    1441102.4    376.90403
Loop time of 41.6454 on 12 procs for 10000 steps with 1572 atoms

timestep 0.1
run 10000
PPPM initialization ...
  extracting TIP4P info from pair style
  G vector (1/distance) = 0.310502
  grid = 24 24 24
  stencil order = 5
  estimated absolute RMS force accuracy = 0.00364393
  estimated relative force accuracy = 1.09736e-05
  3d grid and FFT values/proc = 5415 1152
Step Density Temp Press TotEng
20000    1.1575871    297.95029   -29176.173   -7238.2639
Loop time of 43.088 on 12 procs for 10000 steps with 1572 atoms

timestep 0.2
run 10000
PPPM initialization ...
  extracting TIP4P info from pair style
  G vector (1/distance) = 0.311257
  grid = 24 24 24
  stencil order = 5
  estimated absolute RMS force accuracy = 0.00353187
  estimated relative force accuracy = 1.06361e-05
  3d grid and FFT values/proc = 5415 1152
Step Density Temp Press TotEng
30000    1.1945968    308.44212   -4301.9215   -8313.7762
Loop time of 42.4716 on 12 procs for 10000 steps with 1572 atoms

timestep 0.5
run 10000
PPPM initialization ...
  extracting TIP4P info from pair style
  G vector (1/distance) = 0.310358
  grid = 24 24 24
  stencil order = 5
  estimated absolute RMS force accuracy = 0.00366574
  estimated relative force accuracy = 1.10393e-05
  3d grid and FFT values/proc = 5415 1152
Step Density Temp Press TotEng
40000    1.1506532    300.87037    3338.5628   -8416.2932
Loop time of 43.514 on 12 procs for 10000 steps with 1572 atoms

reset_timestep 0

# continuing the initialization with the final value of timestep
unfix integrate
fix integrate all npt temp 298.15 298.15 100.0 iso 1 1 1000.0

timestep 2

run 5000000
PPPM initialization ...
  extracting TIP4P info from pair style
  G vector (1/distance) = 0.310217
  grid = 24 24 24
  stencil order = 5
  estimated absolute RMS force accuracy = 0.00368709
  estimated relative force accuracy = 1.11036e-05
  3d grid and FFT values/proc = 5415 1152
Step Density Temp Press TotEng
0    1.1439424    291.60262    392.64853   -8394.8938
Averages over the last 26 of 51 rows, steps 2500000 to 5000000:
Density Temp Press TotEng
1.15185 297.193 -18.5423 -8403.78
Loop time of 22929.7 on 12 procs for 5000000 steps with 1572 atoms

reset_timestep 0

#################### 3) Obtaining average volume in NPT ######################
# Creating restart files
restart 100000 1.restart 2.restart

# Getting the average volume of the system
variable Volume equal vol
fix VoluAve all ave/time 1 5000000 5000000 v_Volume file volume.dat

variable Dens equal density
fix DensAve all ave/time 1 50000 50000 v_Dens file density.dat

compute T1 all temp
fix TempAve1 all ave/time 1 50000 50000 c_T1 file temperatureNPT.dat

compute P1 all pressure T1
fix PressAve1 all ave/time 1 50000 50000 c_P1 file pressureNPT.dat

run 5000000
PPPM initialization ...
  extracting TIP4P info from pair style
  G vector (1/distance) = 0.310406
  grid = 24 24 24
  stencil order = 5
  estimated absolute RMS force accuracy = 0.00365847
  estimated relative force accuracy = 1.10174e-05
  3d grid and FFT values/proc = 5415 1152
Step Density Temp Press TotEng
0    1.1529552    293.10886   -1.7195691   -8463.8336
Averages over the last 26 of 51 rows, steps 2500000 to 5000000:
Density Temp Press TotEng
1.1523 299.633 -38.2878 -8398.89
Loop time of 23232.1 on 12 procs for 5000000 steps with 1572 atoms

#################### 4) Initializing the NVT ensemble ####################
# scaling the size of the system to the average volume
variable sidesize equal (f_VoluAve^(1.0/3.0))    # get the volume
variable xlow equal xlo
variable ylow equal ylo
variable zlow equal zlo
variable xhig equal (xlo+25.6313366385664)
variable yhig equal (ylo+25.6313366385664)
variable zhig equal (zlo+25.6313366385664)
change_box all x final 0.144950183551106 25.7762868221175 y final 0.144950183551106 25.7762868221175 z final 0.144950183551106 25.7762868221175
  orthogonal box = (0.14495 0.14495 0.14495) to (25.7763 25.7033 25.7033)
  orthogonal box = (0.14495 0.14495 0.14495) to (25.7763 25.7763 25.7033)
  orthogonal box = (0.14495 0.14495 0.14495) to (25.7763 25.7763 25.7763)
unfix DensAve
unfix VoluAve
unfix TempAve1
unfix PressAve1

# changing the ensemble to NVT
unfix integrate
fix integrate all nvt temp 298.15 298.15 10.0

timestep 0.001
run 10000
PPPM initialization ...
  extracting TIP4P info from pair style
  G vector (1/distance) = 0.310405
  grid = 24 24 24
  stencil order = 5
  estimated absolute RMS force accuracy = 0.00365851
  estimated relative force accuracy = 1.10175e-05
  3d grid and FFT values/proc = 5415 1152
Step Density Temp Press TotEng
5000000    1.1529415    299.31867   -9709.7474   -8499.0891
Loop time of 29.695 on 12 procs for 10000 steps with 1572 atoms

timestep 0.01
run 10000
PPPM initialization ...
  extracting TIP4P info from pair style
  G vector (1/distance) = 0.310405
  grid = 24 24 24
  stencil order = 5
  estimated absolute RMS force accuracy = 0.00365851
  estimated relative force accuracy = 1.10175e-05
  3d grid and FFT values/proc = 5415 1152
Step Density Temp Press TotEng
5010000    1.1529415    295.67666     1003.354   -8440.6774
Loop time of 29.7077 on 12 procs for 10000 steps with 1572 atoms

timestep 0.1
run 10000
PPPM initialization ...
  extracting TIP4P info from pair style
  G vector (1/distance) = 0.310405
  grid = 24 24 24
  stencil order = 5
  estimated absolute RMS force accuracy = 0.00365851
  estimated relative force accuracy = 1.10175e-05
  3d grid and FFT values/proc = 5415 1152
Step Density Temp Press TotEng
5020000    1.1529415    282.28167    159.62375   -8447.5025
Loop time of 30.5448 on 12 procs for 10000 steps with 1572 atoms

timestep 0.2
run 10000
PPPM initialization ...
  extracting TIP4P info from pair style
  G vector (1/distance) = 0.310405
  grid = 24 24 24
  stencil order = 5
  estimated absolute RMS force accuracy = 0.00365851
  estimated relative force accuracy = 1.10175e-05
  3d grid and FFT values/proc = 5415 1152
Step Density Temp Press TotEng
5030000    1.1529415    302.90259    176.86107   -8408.8926
Loop time of 30.2676 on 12 procs for 10000 steps with 1572 atoms

timestep 0.5
run 10000
PPPM initialization ...
  extracting TIP4P info from pair style
  G vector (1/distance) = 0.310405
  grid = 24 24 24
  stencil order = 5
  estimated absolute RMS force accuracy = 0.00365851
  estimated relative force accuracy = 1.10175e-05
  3d grid and FFT values/proc = 5415 1152
Step Density Temp Press TotEng
5040000    1.1529415    286.17125     -437.275   -8480.2996
Loop time of 31.184 on 12 procs for 10000 steps with 1572 atoms

unfix integrate
fix integrate all nvt temp 298.15 298.15 100.0
# continuing the initialization with the final value of timestep
timestep 2

run 2500000
PPPM initialization ...
  extracting TIP4P info from pair style
  G vector (1/distance) = 0.310405
  grid = 24 24 24
  stencil order = 5
  estimated absolute RMS force accuracy = 0.00365851
  estimated relative force accuracy = 1.10175e-05
  3d grid and FFT values/proc = 5415 1152
Step Density Temp Press TotEng
5050000    1.1529415    305.83217    284.46217   -8397.3987
Averages over the last 14 of 27 rows, steps 6300000 to 7550000:
Density Temp Press TotEng
1.15294 298.928 -201.794 -8388.56
Loop time of 8209.39 on 12 procs for 2500000 steps with 1572 atoms

reset_timestep 0

#################### 2) Production in NVT ensemble #####################
# computing average total energy, pontential energy, temperature, and pressure over time
variable TotEn equal etotal
fix TEAve all ave/time 1 100000 100000 v_TotEn file TotalE.dat

variable PotEn equal pe
fix PEAve all ave/time 1 100000 100000 v_PotEn file PotenE.dat

compute T all temp
fix TempAve all ave/time 1 100000 100000 c_T file temperature.dat

compute P all pressure T
fix PressAve all ave/time 1 100000 100000 c_P file pressure.dat

# computing self-diffusion and Onsager coefficients using the OCTP plugin
compute positions all position
fix f1 all ordern diffusivity 1000 100000 c_positions nb 10 nbe 20

# computing shear and bulk viscosities  using the OCTP plugin
fix f2 all ordern viscosity 5 100000 c_P nb 10 nbe 20

# computing thermal conductivity using the OCTP plugin
compute KE all ke/atom
compute PE all pe/atom
compute ST all stress/atom NULL virial
compute heatflux all heat/flux KE PE ST
fix f3 all ordern thermalconductivity 5 100000 c_heatflux nb 10 nbe 20

# computing the RDF for all group pairs
compute rdfs all rdf/ext Nbin 2000 Nwrite 1000
fix f4 all ave/time 1 1 1000 c_rdfs

dump trjectory all xyz 100000 movie.xyz
dump_modify trjectory element Ow H K Cl

run 250000
PPPM initialization ...
  extracting TIP4P info from pair style
  G vector (1/distance) = 0.310405
  grid = 24 24 24
  stencil order = 5
  estimated absolute RMS force accuracy = 0.00365851
  estimated relative force accuracy = 1.10175e-05
  3d grid and FFT values/proc = 5415 1152
Step Density Temp Press TotEng
0    1.1529415    301.56897    -655.9996   -8418.0858
Loop time of 1289.49 on 12 procs for 250000 steps with 1572 atoms

shell bash copy_files.sh dt_2 00.25Mstep

run 250000
PPPM initialization ...
  extracting TIP4P info from pair style
  G vector (1/distance) = 0.310405
  grid = 24 24 24
  stencil order = 5
  estimated absolute RMS force accuracy = 0.00365851
  estimated relative force accuracy = 1.10175e-05
  3d grid and FFT values/proc = 5415 1152
Step Density Temp Press TotEng
250000    1.1529415    291.77325   -442.71896   -8377.1815
Loop time of 1293.49 on 12 procs for 250000 steps with 1572 atoms

shell bash copy_files.sh dt_2 00.50Mstep

run 250000
PPPM initialization ...
  extracting TIP4P info from pair style
  G vector (1/distance) = 0.310405
  grid = 24 24 24
  stencil order = 5
  estimated absolute RMS force accuracy = 0.00365851
  estimated relative force accuracy = 1.10175e-05
  3d grid and FFT values/proc = 5415 1152
Step Density Temp Press TotEng
500000    1.1529415    295.99633   -560.33659   -8351.4081
Loop time of 1292.07 on 12 procs for 250000 steps with 1572 atoms

shell bash copy_files.sh dt_2 00.75Mstep

run 250000
PPPM initialization ...
  extracting TIP4P info from pair style
  G vector (1/distance) = 0.310405
  grid = 24 24 24
  stencil order = 5
  estimated absolute RMS force accuracy = 0.00365851
  estimated relative force accuracy = 1.10175e-05
  3d grid and FFT values/proc = 5415 1152
Step Density Temp Press TotEng
750000    1.1529415    309.76947    97.871749   -8390.6529
Loop time of 1300.99 on 12 procs for 250000 steps with 1572 atoms

shell bash copy_files.sh dt_2 01.00Mstep

run 250000
PPPM initialization ...
  extracting TIP4P info from pair style
  G vector (1/distance) = 0.310405
  grid = 24 24 24
  stencil order = 5
  estimated absolute RMS force accuracy = 0.00365851
  estimated relative force accuracy = 1.10175e-05
  3d grid and FFT values/proc = 5415 1152
Step Density Temp Press TotEng
1000000    1.1529415    310.76782   -566.63417   -8351.9373
Loop time of 1295.77 on 12 procs for 250000 steps with 1572 atoms

shell bash copy_files.sh dt_2 01.25Mstep

run 250000
PPPM initialization ...
  extracting TIP4P info from pair style
  G vector (1/distance) = 0.310405
  grid = 24 24 24
  stencil order = 5
  estimated absolute RMS force accuracy = 0.00365851
  estimated relative force accuracy = 1.10175e-05
  3d grid and FFT values/proc = 5415 1152
Step Density Temp Press TotEng
1250000    1.1529415    293.04816   -290.99958   -8365.2497
Loop time of 1294.96 on 12 procs for 250000 steps with 1572 atoms

shell bash copy_files.sh dt_2 01.50Mstep

run 250000
PPPM initialization ...
  extracting TIP4P info from pair style
  G vector (1/distance) = 0.310405
  grid = 24 24 24
  stencil order = 5
  estimated absolute RMS force accuracy = 0.00365851
  estimated relative force accuracy = 1.10175e-05
  3d grid and FFT values/proc = 5415 1152
Step Density Temp Press TotEng
1500000    1.1529415    294.92268   -1114.3394   -8385.5832
Loop time of 1290.39 on 12 procs for 250000 steps with 1572 atoms

shell bash copy_files.sh dt_2 01.75Mstep

run 250000
PPPM initialization ...
  extracting TIP4P info from pair style
  G vector (1/distance) = 0.310405
  grid = 24 24 24
  stencil order = 5
  estimated absolute RMS force accuracy = 0.00365851
  estimated relative force accuracy = 1.10175e-05
  3d grid and FFT values/proc = 5415 1152
Step Density Temp Press TotEng
1750000    1.1529415     299.7383    125.86014   -8412.7638
Loop time of 1297.03 on 12 procs for 250000 steps with 1572 atoms

shell bash copy_files.sh dt_2 02.00step

run 1000000
PPPM initialization ...
  extracting TIP4P info from pair style
  G vector (1/distance) = 0.310405
  grid = 24 24 24
  stencil order = 5
  estimated absolute RMS force accuracy = 0.00365851
  estimated relative force accuracy = 1.10175e-05
  3d grid and FFT values/proc = 5415 1152
Step Density Temp Press TotEng
2000000    1.1529415    299.29379   -551.40352   -8320.0825
Averages over the last 6 of 11 rows, steps 2500000 to 3000000:
Density Temp Press TotEng
1.15294 303.866 118.324 -8372.66
Loop time of 5164.53 on 12 procs for 1000000 steps with 1572 atoms

shell bash copy_files.sh dt_2 03.00Mstep

run 1000000
PPPM initialization ...
  extracting TIP4P info from pair style
  G vector (1/distance) = 0.310405
  grid = 24 24 24
  stencil order = 5
  estimated absolute RMS force accuracy = 0.00365851
  estimated relative force accuracy = 1.10175e-05
  3d grid and FFT values/proc = 5415 1152
Step Density Temp Press TotEng
3000000    1.1529415    285.56378    370.91841   -8446.8701
Averages over the last 6 of 11 rows, steps 3500000 to 4000000:
Density Temp Press TotEng
1.15294 296.814 143.367 -8407.16
Loop time of 5162.2 on 12 procs for 1000000 steps with 1572 atoms

shell bash copy_files.sh dt_2 04.00Mstep

run 1000000
PPPM initialization ...
  extracting TIP4P info from pair style
  G vector (1/distance) = 0.310405
  grid = 24 24 24
  stencil order = 5
  estimated absolute RMS force accuracy = 0.00365851
  estimated relative force accuracy = 1.10175e-05
  3d grid and FFT values/proc = 5415 1152
Step Density Temp Press TotEng
4000000    1.1529415    298.03226   -118.80355    -8452.022
Averages over the last 6 of 11 rows, steps 4500000 to 5000000:
Density Temp Press TotEng
1.15294 298.933 -191.803 -8393.85
Loop time of 5141.74 on 12 procs for 1000000 steps with 1572 atoms

shell bash copy_files.sh dt_2 05.00Mstep

run 1000000
PPPM initialization ...
  extracting TIP4P info from pair style
  G vector (1/distance) = 0.310405
  grid = 24 24 24
  stencil order = 5
  estimated absolute RMS force accuracy = 0.00365851
  estimated relative force accuracy = 1.10175e-05
  3d grid and FFT values/proc = 5415 1152
Step Density Temp Press TotEng
5000000    1.1529415    306.16153   -488.57926   -8352.4079
Averages over the last 6 of 11 rows, steps 5500000 to 6000000:
Density Temp Press TotEng
1.15294 300.254 343.166 -8407.48
Loop time of 5156.18 on 12 procs for 1000000 steps with 1572 atoms

shell bash copy_files.sh dt_2 06.00Mstep

run 1000000
PPPM initialization ...
  extracting TIP4P info from pair style
  G vector (1/distance) = 0.310405
  grid = 24 24 24
  stencil order = 5
  estimated absolute RMS force accuracy = 0.00365851
  estimated relative force accuracy = 1.10175e-05
  3d grid and FFT values/proc = 5415 1152
Step Density Temp Press TotEng
6000000    1.1529415    302.58871    12.346363   -8464.9033
Averages over the last 6 of 11 rows, steps 6500000 to 7000000:
Density Temp Press TotEng
1.15294 296.287 -30.4596 -8415.74
Loop time of 5136.8 on 12 procs for 1000000 steps with 1572 atoms

shell bash copy_files.sh dt_2 07.00Mstep

run 1000000
PPPM initialization ...
  extracting TIP4P info from pair style
  G vector (1/distance) = 0.310405
  grid = 24 24 24
  stencil order = 5
  estimated absolute RMS force accuracy = 0.00365851
  estimated relative force accuracy = 1.10175e-05
  3d grid and FFT values/proc = 5415 1152
Step Density Temp Press TotEng
7000000    1.1529415    283.25271   -246.00489   -8488.7671
Averages over the last 6 of 11 rows, steps 7500000 to 8000000:
Density Temp Press TotEng
1.15294 300.717 126.255 -8388.36
Loop time of 5165.79 on 12 procs for 1000000 steps with 1572 atoms

shell bash copy_files.sh dt_2 08.00Mstep

run 1000000
PPPM initialization ...
  extracting TIP4P info from pair style
  G vector (1/distance) = 0.310405
  grid = 24 24 24
  stencil order = 5
  estimated absolute RMS force accuracy = 0.00365851
  estimated relative force accuracy = 1.10175e-05
  3d grid and FFT values/proc = 5415 1152
Step Density Temp Press TotEng
8000000    1.1529415     306.4346     104.3936   -8351.1927
Averages over the last 6 of 11 rows, steps 8500000 to 9000000:
Density Temp Press TotEng
1.15294 292.48 -4.62697 -8408.43
Loop time of 5168.15 on 12 procs for 1000000 steps with 1572 atoms

shell bash copy_files.sh dt_2 09.00Mstep

run 1000000
PPPM initialization ...
  extracting TIP4P info from pair style
  G vector (1/distance) = 0.310405
  grid = 24 24 24
  stencil order = 5
  estimated absolute RMS force accuracy = 0.00365851
  estimated relative force accuracy = 1.10175e-05
  3d grid and FFT values/proc = 5415 1152
Step Density Temp Press TotEng
9000000    1.1529415    292.11783    498.88896   -8430.5533
Averages over the last 6 of 11 rows, steps 9500000 to 10000000:
Density Temp Press TotEng
1.15294 292.927 122.121 -8411.79
Loop time of 5143.79 on 12 procs for 1000000 steps with 1572 atoms

shell bash copy_files.sh dt_2 10.00Mstep

run 2500000
PPPM initialization ...
  extracting TIP4P info from pair style
  G vector (1/distance) = 0.310405
  grid = 24 24 24
  stencil order = 5
  estimated absolute RMS force accuracy = 0.00365851
  estimated relative force accuracy = 1.10175e-05
  3d grid and FFT values/proc = 5415 1152
Step Density Temp Press TotEng
10000000    1.1529415    294.57247   -86.008092   -8411.8237
Averages over the last 13 of 26 rows, steps 11300000 to 12500000:
Density Temp Press TotEng
1.15294 298.469 193.089 -8391.94
Loop time of 12949 on 12 procs for 2500000 steps with 1572 atoms

shell bash copy_files.sh dt_2 12.50Mstep

run 2500000
PPPM initialization ...
  extracting TIP4P info from pair style
  G vector (1/distance) = 0.310405
  grid = 24 24 24
  stencil order = 5
  estimated absolute RMS force accuracy = 0.00365851
  estimated relative force accuracy = 1.10175e-05
  3d grid and FFT values/proc = 5415 1152
Step Density Temp Press TotEng
12500000    1.1529415    300.52757   -485.81318   -8371.4898
Averages over the last 13 of 26 rows, steps 13800000 to 15000000:
Density Temp Press TotEng
1.15294 298.97 -171.096 -8405.88
Loop time of 12934.3 on 12 procs for 2500000 steps with 1572 atoms

shell bash copy_files.sh dt_2 15.00Mstep

run 2500000
PPPM initialization ...
  extracting TIP4P info from pair style
  G vector (1/distance) = 0.310405
  grid = 24 24 24
  stencil order = 5
  estimated absolute RMS force accuracy = 0.00365851
  estimated relative force accuracy = 1.10175e-05
  3d grid and FFT values/proc = 5415 1152
Step Density Temp Press TotEng
15000000    1.1529415    299.91318   -655.07569   -8387.8524
Averages over the last 13 of 26 rows, steps 16300000 to 17500000:
Density Temp Press TotEng
1.15294 298.837 -188.44 -8393.51
Loop time of 12941.2 on 12 procs for 2500000 steps with 1572 atoms

shell bash copy_files.sh dt_2 17.50Mstep

run 2500000
PPPM initialization ...
  extracting TIP4P info from pair style
  G vector (1/distance) = 0.310405
  grid = 24 24 24
  stencil order = 5
  estimated absolute RMS force accuracy = 0.00365851
  estimated relative force accuracy = 1.10175e-05
  3d grid and FFT values/proc = 5415 1152
Step Density Temp Press TotEng
17500000    1.1529415    298.14587    721.75314   -8377.5538
Averages over the last 13 of 26 rows, steps 18800000 to 20000000:
Density Temp Press TotEng
1.15294 296.975 108.466 -8393.05
Loop time of 12943.6 on 12 procs for 2500000 steps with 1572 atoms

shell bash copy_files.sh dt_2 20.00Mstep

run 5000000
PPPM initialization ...
  extracting TIP4P info from pair style
  G vector (1/distance) = 0.310405
  grid = 24 24 24
  stencil order = 5
  estimated absolute RMS force accuracy = 0.00365851
  estimated relative force accuracy = 1.10175e-05
  3d grid and FFT values/proc = 5415 1152
Step Density Temp Press TotEng
20000000    1.1529415    305.24357    776.69176   -8360.2762
Averages over the last 26 of 51 rows, steps 22500000 to 25000000:
Density Temp Press TotEng
1.15294 297.961 181.907 -8389.99
Loop time of 25751.4 on 12 procs for 5000000 steps with 1572 atoms

shell bash copy_files.sh dt_2 25.00Mstep

run 5000000
PPPM initialization ...
  extracting TIP4P info from pair style
  G vector (1/distance) = 0.310405
  grid = 24 24 24
  stencil order = 5
  estimated absolute RMS force accuracy = 0.00365851
  estimated relative force accuracy = 1.10175e-05
  3d grid and FFT values/proc = 5415 1152
Step Density Temp Press TotEng
25000000    1.1529415    316.47347    1029.0395   -8311.2205
Averages over the last 26 of 51 rows, steps 27500000 to 30000000:
Density Temp Press TotEng
1.15294 299.65 61.1987 -8378.35
Loop time of 25831.6 on 12 procs for 5000000 steps with 1572 atoms

shell bash copy_files.sh dt_2 30.00Mstep

run 5000000
PPPM initialization ...
  extracting TIP4P info from pair style
  G vector (1/distance) = 0.310405
  grid = 24 24 24
  stencil order = 5
  estimated absolute RMS force accuracy = 0.00365851
  estimated relative force accuracy = 1.10175e-05
  3d grid and FFT values/proc = 5415 1152
Step Density Temp Press TotEng
30000000    1.1529415    280.17792    804.91324   -8468.4561
Averages over the last 26 of 51 rows, steps 32500000 to 35000000:
Density Temp Press TotEng
1.15294 297.619 -77.9715 -8396.53
Loop time of 25778.8 on 12 procs for 5000000 steps with 1572 atoms

shell bash copy_files.sh dt_2 35.00Mstep

run 5000000
PPPM initialization ...
  extracting TIP4P info from pair style
  G vector (1/distance) = 0.310405
  grid = 24 24 24
  stencil order = 5
  estimated absolute RMS force accuracy = 0.00365851
  estimated relative force accuracy = 1.10175e-05
  3d grid and FFT values/proc = 5415 1152
Step Density Temp Press TotEng
35000000    1.1529415    297.77099   -1287.1417   -8419.6603
Averages over the last 26 of 51 rows, steps 37500000 to 40000000:
Density Temp Press TotEng
1.15294 297.087 55.2355 -8396.03
Loop time of 25954.5 on 12 procs for 5000000 steps with 1572 atoms

shell bash copy_files.sh dt_2 40.00Mstep

run 5000000
PPPM initialization ...
  extracting TIP4P info from pair style
  G vector (1/distance) = 0.310405
  grid = 24 24 24
  stencil order = 5
  estimated absolute RMS force accuracy = 0.00365851
  estimated relative force accuracy = 1.10175e-05
  3d grid and FFT values/proc = 5415 1152
Step Density Temp Press TotEng
40000000    1.1529415    298.62072    -387.7561   -8442.5741
Averages over the last 26 of 51 rows, steps 42500000 to 45000000:
Density Temp Press TotEng
1.15294 295.154 -132.855 -8400.23
Loop time of 25898.3 on 12 procs for 5000000 steps with 1572 atoms

shell bash copy_files.sh dt_2 45.00Mstep

run 5000000
PPPM initialization ...
  extracting TIP4P info from pair style
  G vector (1/distance) = 0.310405
  grid = 24 24 24
  stencil order = 5
  estimated absolute RMS force accuracy = 0.00365851
  estimated relative force accuracy = 1.10175e-05
  3d grid and FFT values/proc = 5415 1152
Step Density Temp Press TotEng
45000000    1.1529415    294.58157    877.52717     -8403.35
Averages over the last 26 of 51 rows, steps 47500000 to 50000000:
Density Temp Press TotEng
1.15294 298.464 21.2403 -8392.91
Loop time of 25815.7 on 12 procs for 5000000 steps with 1572 atoms
