LAMMPS (16 Mar 2018)
####################################################
# Preprocessing Li2SO4 in water
#################### SETTING UP ####################
units real
dimension 3
newton on
boundary p p p
atom_style full

#################### VARIABLES ####################
variable Temp equal 298.15    # Temperature in K
variable Pres equal 1    # Pressure in atm.

variable RandomSeed equal 29 # The random seed for velocity
variable tstep equal 1 # timestep in fs

#################### NPT ####################
variable Ninptpre equal 10000 # Pre-initialize the NPT ensemble (very small timesteps)
variable Ninpt equal 5000000  # Initialize the NPT ensemble
variable Npnpt equal 5000000  # Production in the NPT ensemble (volume)

#################### NVT ####################
variable Ninvtpre equal 10000  # Pre-initialize the NVT ensemble (very small timesteps)
variable Ninvt equal 2500000   # Initialize the NVT ensemble 2.5Mstep
variable Nrun1 equal 250000  # production in the NVT ensemble (Transport properties)
variable Nrun2 equal 1000000  # production in the NVT ensemble (Transport properties)
variable Nrun3 equal 2500000  # production in the NVT ensemble (Transport properties)
variable Nrun4 equal 5000000  # production in the NVT ensemble (Transport properties)

variable Nf equal 100000      # Nfreq (fix ave/time and thermo)
variable Ne equal  1          # Nevery (fix ave/time)
variable Nr equal 100000/1
variable Nd equal 100000
variable NBR equal 5000000/100

variable nb equal 10          # Number of blocks (fix ordern)
variable nbe equal 20         # Number of block elements (fix ordern)
variable Nvisc equal 5        # Nevery for viscosity (fix ordern: sample data at (Nvisc*2))
variable Ncond equal 5        # Nevery for Tconductivity (fix ordern: sample data at (Ncond*2))
variable Ndiff equal 1000     # Nevery for diffusivity (fix ordern: sample data at (Ndiff))
variable Nwrit equal 100000   # Nwrite for transport properties (fix ordern: write every (Nwrit))

variable Nrdfe equal 1000     # Nevery for RDF (fix ave/time)
variable Nrdfw equal 1000     # Nwrite for RDF (compute rdf/ext: write every (Nrdfw*Nrdfe))
variable binnum equal 2000    # Number of bins for RDF

#################### ATOM DEFINITION and FORCEFIELD ####################
read_data ./data.lmp                     # read the positions
  orthogonal box = (0 0 0) to (25.8482 25.8482 25.8482)
  reading atoms ...
  1572 atoms
  scanning bonds ...
  scanning angles ...
  reading bonds ...
  1000 bonds
  reading angles ...
  500 angles
include ./forcefield.data                # read the force field
#--------INTERMOLECULAR POTENTIAL -------------------#
# --------Developed for MadridT KCl + TIP4P/2005-----#

mass 1 15.9994	# Ow
mass 2 1.008	# Hw
mass 3 39.0983	# K
mass 4 35.453	# Cl

pair_style lj/cut/tip4p/long 1 2 1 1 0.1546 10.0
kspace_style pppm/tip4p 1.0e-5
pair_modify mix arithmetic tail yes # ATC and Lorentz-Berthelot combining rules

#-----------------Combinations----------------------------
# atomtype atomtype epsilon sigma

pair_coeff 1 1 0.185200 3.15890    # Ow-Ow
pair_coeff 1 2 0.000000 0.00000    # Ow-Hw
pair_coeff 1 3 0.334711 2.89540    # Ow-K
pair_coeff 1 4 0.014814 4.07631    # Ow-Cl

pair_coeff 2 2 0.000000 0.00000    # Hw-Hw
pair_coeff 2 3 0.000000 0.00000    # Hw-K
pair_coeff 2 4 0.000000 0.00000    # Hw-Cl

pair_coeff 3 3 0.474603 3.41700    # K-K
pair_coeff 3 4 0.334608 3.41700    # K-Cl

pair_coeff 4 4 0.018385 4.69906    # Cl-Cl

bond_style  harmonic
bond_coeff 1 2000 0.9572           # Ow-Hw

angle_style harmonic
angle_coeff 1 200 104.52           # H-Ow-H

#dihedral_style none
#improper_style none

set type 1 charge -1.1128          # O
  500 settings made for charge
set type 2 charge +0.5564          # OH
  1000 settings made for charge
set type 3 charge +0.7500          # K
  36 settings made for charge
set type 4 charge -0.7500          # Cl
  36 settings made for charge

#################### INITIALIZATION ####################
group wat type 1		# O water
500 atoms in group wat
group K type 3			# Potasium ion
36 atoms in group K
group Cl type 4			# Chlorine ion
36 atoms in group Cl

# neigbor lists
neighbor 2.0 bin
neigh_modify every 1 delay 0 check yes

# velocity-Verlet integrator
run_style verlet

# initializing velocities
velocity all create 298.15 29

# rate of writing thermal properties to the log file
thermo_style custom step density temp press etotal
thermo_modify flush yes
thermo 100000

#################### 2) Initialize the NPT ensemble ####################
######### Go to the correct temperature now ant initiate that ##########
fix constrain all shake 1.0e-6 1000 0 b 1 a 1
fix integrate all npt temp 298.15 298.15 10.0 iso 1 1 100.0

# Initializing the whole system with very small timesteps in the NPT ensemble
timestep 0.001
run 10000
PPPM initialization ...
  extracting TIP4P info from pair style
  G vector (1/distance) = 0.309797
  grid = 24 24 24
  stencil order = 5
  estimated absolute RMS force accuracy = 0.00375155
  estimated relative force accuracy = 1.12977e-05
  3d grid and FFT values/proc = 5415 1152
  update every 1 steps, delay 0 steps, check yes
Step Density Temp Press TotEng
0    1.1241608    437.34234    1384371.2    2311.9202
Loop time of 39.5723 on 12 procs for 10000 steps with 1572 atoms

timestep 0.01
run 10000
PPPM initialization ...
  extracting TIP4P info from pair style
  G vector (1/distance) = 0.310439
  grid = 25 25 25
  stencil order = 5
  estimated absolute RMS force accuracy = 0.00343625
  estimated relative force accuracy = 1.03482e-05
  3d grid and FFT values/proc = 6400 1875
Step Density Temp Press TotEng
10000    1.0215929    1123.9918    1448049.5    374.71038
Loop time of 42.4384 on 12 procs for 10000 steps with 1572 atoms

timestep 0.1
run 10000
PPPM initialization ...
  extracting TIP4P info from pair style
  G vector (1/distance) = 0.310539
  grid = 24 24 24
  stencil order = 5
  estimated absolute RMS force accuracy = 0.00363837
  estimated relative force accuracy = 1.09568e-05
  3d grid and FFT values/proc = 5415 1152
Step Density Temp Press TotEng
20000    1.1593703    293.31118   -25940.342    -7305.224
Loop time of 43.1358 on 12 procs for 10000 steps with 1572 atoms

timestep 0.2
run 10000
PPPM initialization ...
  extracting TIP4P info from pair style
  G vector (1/distance) = 0.310829
  grid = 24 24 24
  stencil order = 5
  estimated absolute RMS force accuracy = 0.00359503
  estimated relative force accuracy = 1.08263e-05
  3d grid and FFT values/proc = 5415 1152
Step Density Temp Press TotEng
30000    1.1734486    291.79321    8927.6132   -8390.7043
Loop time of 43.6702 on 12 procs for 10000 steps with 1572 atoms

timestep 0.5
run 10000
PPPM initialization ...
  extracting TIP4P info from pair style
  G vector (1/distance) = 0.310521
  grid = 24 24 24
  stencil order = 5
  estimated absolute RMS force accuracy = 0.00364109
  estimated relative force accuracy = 1.0965e-05
  3d grid and FFT values/proc = 5415 1152
Step Density Temp Press TotEng
40000    1.1584981    296.88579   -2502.4383   -8401.7024
Loop time of 43.8684 on 12 procs for 10000 steps with 1572 atoms

reset_timestep 0

# continuing the initialization with the final value of timestep
unfix integrate
fix integrate all npt temp 298.15 298.15 100.0 iso 1 1 1000.0

timestep 1

run 5000000
PPPM initialization ...
  extracting TIP4P info from pair style
  G vector (1/distance) = 0.310523
  grid = 24 24 24
  stencil order = 5
  estimated absolute RMS force accuracy = 0.00364082
  estimated relative force accuracy = 1.09642e-05
  3d grid and FFT values/proc = 5415 1152
Step Density Temp Press TotEng
0    1.1585845    302.05995    234.00731   -8450.0385
Averages over the last 26 of 51 rows, steps 2500000 to 5000000:
Density Temp Press TotEng
1.14915 301.313 -247.398 -8395.82
Loop time of 22236.7 on 12 procs for 5000000 steps with 1572 atoms

reset_timestep 0

#################### 3) Obtaining average volume in NPT ######################
# Creating restart files
restart 100000 1.restart 2.restart

# Getting the average volume of the system
variable Volume equal vol
fix VoluAve all ave/time 1 5000000 5000000 v_Volume file volume.dat

variable Dens equal density
fix DensAve all ave/time 1 50000 50000 v_Dens file density.dat

compute T1 all temp
fix TempAve1 all ave/time 1 50000 50000 c_T1 file temperatureNPT.dat

compute P1 all pressure T1
fix PressAve1 all ave/time 1 50000 50000 c_P1 file pressureNPT.dat

run 5000000
PPPM initialization ...
  extracting TIP4P info from pair style
  G vector (1/distance) = 0.310237
  grid = 24 24 24
  stencil order = 5
  estimated absolute RMS force accuracy = 0.00368409
  estimated relative force accuracy = 1.10945e-05
  3d grid and FFT values/proc = 5415 1152
Step Density Temp Press TotEng
0    1.1448818    298.92448   -136.12453   -8399.7221
Averages over the last 26 of 51 rows, steps 2500000 to 5000000:
Density Temp Press TotEng
1.15118 298.798 46.3137 -8402.06
Loop time of 22404.8 on 12 procs for 5000000 steps with 1572 atoms

#################### 4) Initializing the NVT ensemble ####################
# scaling the size of the system to the average volume
variable sidesize equal (f_VoluAve^(1.0/3.0))    # get the volume
variable xlow equal xlo
variable ylow equal ylo
variable zlow equal zlo
variable xhig equal (xlo+25.6324783588352)
variable yhig equal (ylo+25.6324783588352)
variable zhig equal (zlo+25.6324783588352)
change_box all x final 0.16437278765418 25.7968511464894 y final 0.16437278765418 25.7968511464894 z final 0.16437278765418 25.7968511464894
  orthogonal box = (0.164373 0.164373 0.164373) to (25.7969 25.6839 25.6839)
  orthogonal box = (0.164373 0.164373 0.164373) to (25.7969 25.7969 25.6839)
  orthogonal box = (0.164373 0.164373 0.164373) to (25.7969 25.7969 25.7969)
unfix DensAve
unfix VoluAve
unfix TempAve1
unfix PressAve1

# changing the ensemble to NVT
unfix integrate
fix integrate all nvt temp 298.15 298.15 10.0

timestep 0.001
run 10000
PPPM initialization ...
  extracting TIP4P info from pair style
  G vector (1/distance) = 0.310402
  grid = 24 24 24
  stencil order = 5
  estimated absolute RMS force accuracy = 0.003659
  estimated relative force accuracy = 1.1019e-05
  3d grid and FFT values/proc = 5415 1152
Step Density Temp Press TotEng
5000000    1.1527874    295.83974    59894.292   -8498.4577
Loop time of 30.0539 on 12 procs for 10000 steps with 1572 atoms

timestep 0.01
run 10000
PPPM initialization ...
  extracting TIP4P info from pair style
  G vector (1/distance) = 0.310402
  grid = 24 24 24
  stencil order = 5
  estimated absolute RMS force accuracy = 0.003659
  estimated relative force accuracy = 1.1019e-05
  3d grid and FFT values/proc = 5415 1152
Step Density Temp Press TotEng
5010000    1.1527874    293.46593   -283.75858    -8399.912
Loop time of 30.0913 on 12 procs for 10000 steps with 1572 atoms

timestep 0.1
run 10000
PPPM initialization ...
  extracting TIP4P info from pair style
  G vector (1/distance) = 0.310402
  grid = 24 24 24
  stencil order = 5
  estimated absolute RMS force accuracy = 0.003659
  estimated relative force accuracy = 1.1019e-05
  3d grid and FFT values/proc = 5415 1152
Step Density Temp Press TotEng
5020000    1.1527874    296.24956   -689.58783   -8420.8852
Loop time of 30.737 on 12 procs for 10000 steps with 1572 atoms

timestep 0.2
run 10000
PPPM initialization ...
  extracting TIP4P info from pair style
  G vector (1/distance) = 0.310402
  grid = 24 24 24
  stencil order = 5
  estimated absolute RMS force accuracy = 0.003659
  estimated relative force accuracy = 1.1019e-05
  3d grid and FFT values/proc = 5415 1152
Step Density Temp Press TotEng
5030000    1.1527874    310.02572   -457.98897   -8387.3862
Loop time of 30.5873 on 12 procs for 10000 steps with 1572 atoms

timestep 0.5
run 10000
PPPM initialization ...
  extracting TIP4P info from pair style
  G vector (1/distance) = 0.310402
  grid = 24 24 24
  stencil order = 5
  estimated absolute RMS force accuracy = 0.003659
  estimated relative force accuracy = 1.1019e-05
  3d grid and FFT values/proc = 5415 1152
Step Density Temp Press TotEng
5040000    1.1527874    298.56635    895.35247   -8397.6181
Loop time of 30.7973 on 12 procs for 10000 steps with 1572 atoms

unfix integrate
fix integrate all nvt temp 298.15 298.15 100.0
# continuing the initialization with the final value of timestep
timestep 1

run 2500000
PPPM initialization ...
  extracting TIP4P info from pair style
  G vector (1/distance) = 0.310402
  grid = 24 24 24
  stencil order = 5
  estimated absolute RMS force accuracy = 0.003659
  estimated relative force accuracy = 1.1019e-05
  3d grid and FFT values/proc = 5415 1152
Step Density Temp Press TotEng
5050000    1.1527874    297.03317    30.751021   -8394.1839
Averages over the last 14 of 27 rows, steps 6300000 to 7550000:
Density Temp Press TotEng
1.15279 297.931 174.23 -8381.4
Loop time of 7930.99 on 12 procs for 2500000 steps with 1572 atoms

reset_timestep 0

#################### 2) Production in NVT ensemble #####################
# computing average total energy, pontential energy, temperature, and pressure over time
variable TotEn equal etotal
fix TEAve all ave/time 1 100000 100000 v_TotEn file TotalE.dat

variable PotEn equal pe
fix PEAve all ave/time 1 100000 100000 v_PotEn file PotenE.dat

compute T all temp
fix TempAve all ave/time 1 100000 100000 c_T file temperature.dat

compute P all pressure T
fix PressAve all ave/time 1 100000 100000 c_P file pressure.dat

# computing self-diffusion and Onsager coefficients using the OCTP plugin
compute positions all position
fix f1 all ordern diffusivity 1000 100000 c_positions nb 10 nbe 20

# computing shear and bulk viscosities  using the OCTP plugin
fix f2 all ordern viscosity 5 100000 c_P nb 10 nbe 20

# computing thermal conductivity using the OCTP plugin
compute KE all ke/atom
compute PE all pe/atom
compute ST all stress/atom NULL virial
compute heatflux all heat/flux KE PE ST
fix f3 all ordern thermalconductivity 5 100000 c_heatflux nb 10 nbe 20

# computing the RDF for all group pairs
compute rdfs all rdf/ext Nbin 2000 Nwrite 1000
fix f4 all ave/time 1 1 1000 c_rdfs

dump trjectory all xyz 100000 movie.xyz
dump_modify trjectory element Ow H K Cl

run 250000
PPPM initialization ...
  extracting TIP4P info from pair style
  G vector (1/distance) = 0.310402
  grid = 24 24 24
  stencil order = 5
  estimated absolute RMS force accuracy = 0.003659
  estimated relative force accuracy = 1.1019e-05
  3d grid and FFT values/proc = 5415 1152
Step Density Temp Press TotEng
0    1.1527874    294.41651   -156.35425   -8381.7514
Loop time of 1243.56 on 12 procs for 250000 steps with 1572 atoms

shell bash copy_files.sh dt_1 00.25Mstep

run 250000
PPPM initialization ...
  extracting TIP4P info from pair style
  G vector (1/distance) = 0.310402
  grid = 24 24 24
  stencil order = 5
  estimated absolute RMS force accuracy = 0.003659
  estimated relative force accuracy = 1.1019e-05
  3d grid and FFT values/proc = 5415 1152
Step Density Temp Press TotEng
250000    1.1527874    295.23294    -187.1873   -8407.5107
Loop time of 1243.69 on 12 procs for 250000 steps with 1572 atoms
