LAMMPS (22 Aug 2018)
####################################################
# Transport properties of KCl in water
#  at 298 K and 1 atm.
#################### SETTING UP ####################
units real
dimension 3
newton on
boundary p p p
atom_style full

#################### VARIABLES ####################
variable Temp equal 298       # Temperature in K
variable Pres equal 1.0       # Pressure in atm.

variable RandomSeed equal 200 # The random seed for velocity
variable tstep equal 2.0      # 2fs
variable Ninptpre equal 10000 # Pre-initialize the NPT ensemble (very small timesteps)
variable Ninpt equal 5000000    # Initialize the NPT ensemble
variable Npnpt equal 5000000  # Production in the NPT ensemble (volume)
variable Ninvtpre equal 10000 # Pre-initialize the NVT ensemble (very small timesteps)
variable Ninvt equal 100000   # Initialize the NVT ensemble
variable Npnvt equal 100000   # Production in the NVT ensemble (energy)
variable Nrun equal 100000000   # production in the NVE ensemble
variable Nf equal 10000       # Nfreq (fix ave/time and thermo)
variable Ne equal  10         # Nevery (fix ave/time)
variable Nr equal 10000/10
variable NBR equal 5000000/50
variable Nd equal 100000/10

variable nb equal 10          # Number of blocks (fix ordern)
variable nbe equal 20         # Number of block elements (fix ordern)
variable Nvisc equal 5        # Nevery for viscosity (fix ordern: sample data at (Nvisc*2))
variable Ncond equal 5        # Nevery for Tconductivity (fix ordern: sample data at (Ncond*2))
variable Ndiff equal 1000     # Nevery for diffusivity (fix ordern: sample data at (Ndiff))
variable Nwrit equal 100000   # Nwrite for transport properties (fix ordern: write every (Nwrit))

variable Nrdfe equal 100      # Nevery for RDF (fix ave/time)
variable Nrdfw equal 1000     # Nwrite for RDF (compute rdf/ext: write every (Nrdfw*Nrdfe))
variable binnum equal 2000    # Number of bins for RDF

#################### ATOM DEFINITION and FORCEFIELD ####################
read_data ./data.lmp                     # read the positions
  orthogonal box = (0 0 0) to (33.6962 33.6962 33.6962)
  reading atoms ...
  3152 atoms
  scanning bonds ...
  scanning angles ...
  reading bonds ...
  2000 bonds
  reading angles ...
  1000 angles
include ./forcefield.data                  # read the force field
#--------INTERMOLECULAR POTENTIAL -------------------#
# ---------------Developed for NaCl in water (tip4p/2005) system-----

mass 1 15.9994 # Ow
mass 2 1.00794 # Hw
mass 3 39.0983 # K
mass 4 35.4527 # Cl

pair_style lj/cut/tip4p/long 1 2 1 1 0.1546 10.0

kspace_style pppm/tip4p 1.0e-5
pair_modify tail yes # ATC i

#-----------------Combinations----------------------------
# atomtype atomtype epsilon sigma

pair_coeff 1 1 0.1851 3.1589     # Ow-Ow
pair_coeff 1 2 0.0000 0.0000     # Ow-Hw
pair_coeff 1 3 0.3347 2.89540     # Ow-K
pair_coeff 1 4 0.0148 4.07631     # Ow-Cl

pair_coeff 2 2 0.0000 0.0000     # Hw-Hw
pair_coeff 2 3 0.0000 0.0000     # Hw-K
pair_coeff 2 4 0.0000 0.0000     # Hw-Cl

pair_coeff 3 3 0.4746 2.30140     # K-K
pair_coeff 3 4 0.3346 3.41700     # K-Cl

pair_coeff 4 4 0.0184 4.69906     # Cl-Cl

bond_style  harmonic
bond_coeff 1 1000 0.9572          # Ow-Hw

angle_style harmonic
angle_coeff 1 100 104.52          # H-O-H

#dihedral_style none
#improper_style none

set type 1 charge -1.1128        # O
  1000 settings made for charge
set type 2 charge +0.5564        # OH
  2000 settings made for charge
set type 3 charge +0.7500        # K
  76 settings made for charge
set type 4 charge -0.7500        # Cl
  76 settings made for charge

#################### INITIALIZATION ####################
# groups for the central atoms of water (O)
group wat type 1      # The Oxygen of WATER molecules
1000 atoms in group wat
group K type 3
76 atoms in group K
group Cl type 4
76 atoms in group Cl

# neigbor lists
neighbor 2.0 bin
neigh_modify every 1 delay 0 check yes

# velocity-Verlet integrator
run_style verlet

# minimizing the system using the conjugate gradient method
min_style cg
min_modify dmax 0.05
minimize 1.0e-6 1.0e-6 1000 10000
PPPM initialization ...
  extracting TIP4P info from pair style
  G vector (1/distance) = 0.311414
  grid = 32 32 32
  stencil order = 5
  estimated absolute RMS force accuracy = 0.0032261
  estimated relative force accuracy = 9.71531e-06
  3d grid and FFT values/proc = 2475 256
  update every 1 steps, delay 0 steps, check yes
Step Temp E_pair E_mol TotEng Press
0            0    953.99707 3.2938476e-05    953.99711    26411.001
Loop time of 1.44247 on 128 procs for 1000 steps with 3152 atoms

Minimization stats:
  Stopping criterion = max iterations
  Energy initial, next-to-last, final =
  Force two-norm initial, final = 1809.72 21.4545
  Force max component initial, final = 225.95 2.9606
  Final line search alpha, max atom move = 0.0105836 0.0313339
  Iterations, force evaluations = 1000 1778

reset_timestep 0

# initializing velocities
velocity all create 298 200

# rate of writing thermal properties to the log file
thermo 10000

#################### 1) Initialize the NPT ensemble ####################
# applying the shake algorithm for rigid molecules and the NPT solver
fix constrain all shake 1.0e-6 1000 0 b 1 a 1
fix integrate all npt temp 298 298 10.0 iso 1 1 100.0

# Initializing the whole system with very small timesteps in the NPT ensemble
timestep 0.001
run 10000
PPPM initialization ...
  extracting TIP4P info from pair style
  G vector (1/distance) = 0.311414
  grid = 32 32 32
  stencil order = 5
  estimated absolute RMS force accuracy = 0.0032261
  estimated relative force accuracy = 9.71531e-06
  3d grid and FFT values/proc = 2475 256
Step Temp E_pair E_mol TotEng Press Volume
0    436.54021   -21619.888            0   -18820.913    -698468.3    38259.716
Loop time of 9.97152 on 128 procs for 10000 steps with 3152 atoms

timestep 0.01
run 10000
PPPM initialization ...
  extracting TIP4P info from pair style
  G vector (1/distance) = 0.311513
  grid = 32 32 32
  stencil order = 5
  estimated absolute RMS force accuracy = 0.00321284
  estimated relative force accuracy = 9.67538e-06
  3d grid and FFT values/proc = 2475 256
Step Temp E_pair E_mol TotEng Press Volume
10000    174.87482   -20022.992            0   -18901.743   -42112.825     38100.95
Loop time of 9.33046 on 128 procs for 10000 steps with 3152 atoms

timestep 0.1
run 10000
PPPM initialization ...
  extracting TIP4P info from pair style
  G vector (1/distance) = 0.310941
  grid = 32 32 32
  stencil order = 5
  estimated absolute RMS force accuracy = 0.00328993
  estimated relative force accuracy = 9.90753e-06
  3d grid and FFT values/proc = 2475 256
Step Temp E_pair E_mol TotEng Press Volume
20000    298.71056   -18719.531            0   -16804.282    -14906.62    39023.668
Loop time of 9.70474 on 128 procs for 10000 steps with 3152 atoms

timestep 0.2
run 10000
PPPM initialization ...
  extracting TIP4P info from pair style
  G vector (1/distance) = 0.309047
  grid = 30 30 30
  stencil order = 5
  estimated absolute RMS force accuracy = 0.00391958
  estimated relative force accuracy = 1.18037e-05
  3d grid and FFT values/proc = 2475 256
Step Temp E_pair E_mol TotEng Press Volume
30000     301.0549   -18811.313            0   -16881.032    7457.0448    34795.972
Loop time of 9.47355 on 128 procs for 10000 steps with 3152 atoms

timestep 0.5
run 10000
PPPM initialization ...
  extracting TIP4P info from pair style
  G vector (1/distance) = 0.30958
  grid = 30 30 30
  stencil order = 5
  estimated absolute RMS force accuracy = 0.00383443
  estimated relative force accuracy = 1.15473e-05
  3d grid and FFT values/proc = 2475 256
Step Temp E_pair E_mol TotEng Press Volume
40000    299.98822   -18946.034            0   -17022.593   -1604.3829    34035.675
Loop time of 9.82831 on 128 procs for 10000 steps with 3152 atoms

reset_timestep 0

# continuing the initialization with the final value of timestep
unfix integrate
fix integrate all npt temp 298 298 100.0 iso 1 1 1000.0

timestep 2
run 5000000
PPPM initialization ...
  extracting TIP4P info from pair style
  G vector (1/distance) = 0.309724
  grid = 30 30 30
  stencil order = 5
  estimated absolute RMS force accuracy = 0.00381179
  estimated relative force accuracy = 1.14791e-05
  3d grid and FFT values/proc = 2475 256
Step Temp E_pair E_mol TotEng Press Volume
0    296.36031   -19026.493            0   -17126.313    686.27494    33833.514
Averages over the last 251 of 501 rows, steps 2500000 to 5000000:
Temp E_pair E_mol TotEng Press Volume
298.183 -19087 0 -17175.1 35.6458 33933.9
Loop time of 5156.38 on 128 procs for 5000000 steps with 3152 atoms

reset_timestep 0

#################### 2) Obtaining average volume in NPT ######################
# Getting the average volume of the system
variable Volume equal vol
fix VoluAve all ave/time 1 5000000 5000000 v_Volume file volume.dat

# Thermo style for outputing system properties to the log file
thermo_style custom density
thermo_modify flush yes

variable Dens equal density
fix DensAve all ave/time 1 100000 100000 v_Dens file density.dat

run 5000000
PPPM initialization ...
  extracting TIP4P info from pair style
  G vector (1/distance) = 0.309489
  grid = 30 30 30
  stencil order = 5
  estimated absolute RMS force accuracy = 0.00384882
  estimated relative force accuracy = 1.15906e-05
  3d grid and FFT values/proc = 2475 256
Density
   1.1510156
   1.1565918
   1.1539655
   1.1674453
   1.1602502
   1.1482209
   1.1620639
   1.1540753
   1.1452629
   1.1473404
   1.1725564
   1.1633413
   1.1503653
   1.1705297
   1.1476332
   1.1571187
   1.1526513
   1.1606113
   1.1591832
   1.1527555
   1.1711899
   1.1625063
   1.1761633
   1.1428118
   1.1714882
   1.1653661
   1.1648979
   1.1652884
   1.1802958
   1.1476175
   1.1565061
   1.1526984
   1.1537303
   1.1469183
   1.1503576
   1.1587268
   1.1641788
   1.1559475
   1.1473215
   1.1626121
   1.1561311
   1.1716165
   1.1607395
   1.1628363
    1.172808
   1.1616897
   1.1594938
   1.1582518
   1.1428741
   1.1504999
   1.1575507
   1.1602985
   1.1521536
   1.1466539
   1.1640329
   1.1550472
   1.1526166
   1.1480981
   1.1590484
   1.1517034
   1.1510571
   1.1627821
    1.158095
   1.1562313
   1.1590012
   1.1598314
   1.1565604
   1.1499246
   1.1648395
   1.1645097
   1.1630876
   1.1393034
    1.147014
   1.1518606
   1.1636875
   1.1745415
   1.1639166
   1.1675691
   1.1611634
   1.1471262
   1.1620911
   1.1641643
   1.1619046
   1.1498853
   1.1686942
   1.1559099
   1.1722513
   1.1723213
   1.1535362
   1.1532025
     1.13941
   1.1681674
   1.1565375
   1.1569544
   1.1804784
   1.1650634
   1.1664011
   1.1429667
   1.1405743
   1.1647905
   1.1431072
   1.1710549
   1.1660602
   1.1573293
   1.1486838
   1.1524763
     1.14853
   1.1512427
   1.1577877
   1.1412969
   1.1506454
   1.1539206
    1.141114
   1.1456197
   1.1573961
   1.1474381
   1.1487316
   1.1623165
   1.1491832
   1.1527817
   1.1582194
   1.1478007
   1.1533766
   1.1547353
   1.1547612
   1.1738111
   1.1503844
   1.1487991
   1.1620213
   1.1555109
   1.1554802
     1.15201
    1.174987
   1.1447693
   1.1603719
   1.1509447
   1.1631727
   1.1436182
   1.1615229
   1.1632291
   1.1461357
   1.1546377
   1.1533344
   1.1555183
   1.1637081
   1.1471936
   1.1726092
   1.1655906
   1.1535659
   1.1605512
   1.1658161
   1.1381626
    1.157754
   1.1618693
   1.1572423
   1.1533461
   1.1500302
   1.1618356
   1.1469556
   1.1654468
   1.1523698
    1.143006
   1.1587156
   1.1658376
    1.160648
    1.157376
   1.1519479
   1.1442199
   1.1448776
   1.1559892
   1.1483768
   1.1683709
   1.1483972
   1.1505244
   1.1639692
   1.1660049
   1.1471917
   1.1552526
   1.1472842
   1.1687825
   1.1522437
   1.1688009
   1.1730952
   1.1664161
    1.149513
   1.1724149
   1.1487443
   1.1526491
   1.1572178
   1.1648713
   1.1598727
   1.1814733
   1.1434684
   1.1583857
    1.152193
   1.1511413
   1.1728629
   1.1633167
   1.1563129
   1.1603795
    1.165843
   1.1580796
   1.1628699
   1.1567345
   1.1557749
   1.1530785
   1.1568055
   1.1406082
   1.1752258
   1.1480419
   1.1618395
   1.1487156
   1.1635175
   1.1578667
   1.1547973
   1.1692803
   1.1511536
   1.1719456
   1.1487019
   1.1496529
   1.1603746
   1.1456235
   1.1601971
   1.1531777
   1.1643964
   1.1558099
   1.1649728
    1.156484
   1.1477245
    1.170369
   1.1592113
   1.1607604
   1.1599192
   1.1560573
   1.1447348
   1.1648886
    1.178494
   1.1475073
   1.1625769
   1.1714179
   1.1407183
   1.1669764
   1.1423925
   1.1701495
   1.1521854
   1.1659785
   1.1638155
   1.1611907
   1.1552807
   1.1410135
   1.1620941
   1.1526774
   1.1628998
   1.1529872
   1.1503705
   1.1613279
   1.1664281
   1.1460005
   1.1452543
   1.1712913
   1.1558851
   1.1602102
   1.1587238
   1.1617803
   1.1511999
   1.1687583
   1.1530299
    1.151907
   1.1606501
   1.1437206
    1.162708
    1.161683
   1.1535538
   1.1645903
   1.1703448
   1.1554475
   1.1604254
   1.1433481
   1.1599478
   1.1610575
   1.1564401
   1.1688273
   1.1654236
   1.1458095
   1.1606802
   1.1591942
   1.1512526
   1.1577573
   1.1686145
   1.1698267
   1.1791605
   1.1590014
   1.1648778
   1.1676801
   1.1570426
   1.1756915
   1.1657214
    1.157991
    1.164025
   1.1535797
   1.1761989
   1.1711656
   1.1469072
   1.1569356
   1.1526143
   1.1610302
   1.1632524
   1.1483821
   1.1663754
   1.1629794
   1.1531325
   1.1595043
    1.152178
   1.1504842
   1.1552879
   1.1733505
   1.1745994
   1.1631749
   1.1646741
   1.1705896
   1.1721582
   1.1701068
    1.156332
   1.1578367
   1.1566447
   1.1516283
   1.1596163
   1.1599538
    1.159574
   1.1519867
   1.1520813
   1.1636785
   1.1668452
   1.1491513
   1.1563695
   1.1506608
   1.1457473
   1.1613515
   1.1545345
   1.1662602
   1.1557385
    1.152192
   1.1768319
   1.1730633
   1.1686386
   1.1702807
   1.1591021
   1.1701779
   1.1675891
   1.1519314
   1.1676919
   1.1648007
   1.1594937
   1.1697708
   1.1527895
   1.1642403
   1.1562639
     1.16818
   1.1597693
   1.1653157
   1.1591794
   1.1537955
   1.1585885
   1.1808561
   1.1727123
   1.1656741
   1.1647063
   1.1750809
   1.1595597
    1.166877
   1.1601534
   1.1623629
   1.1700678
   1.1612595
   1.1523245
   1.1681993
   1.1476952
   1.1688193
   1.1642724
   1.1554928
   1.1605593
   1.1645023
   1.1734443
   1.1508488
   1.1661489
   1.1605555
   1.1548895
   1.1599774
   1.1559154
   1.1456227
   1.1519498
   1.1578461
   1.1594701
   1.1478928
   1.1461408
   1.1749811
   1.1568992
    1.158544
   1.1700097
   1.1535502
   1.1547397
   1.1599138
   1.1596305
   1.1698429
   1.1669625
   1.1583909
   1.1645781
   1.1659503
   1.1582217
   1.1450698
   1.1590824
   1.1649351
   1.1561846
   1.1534287
   1.1548103
     1.16862
   1.1554731
    1.173209
   1.1678286
   1.1650581
   1.1652455
   1.1546831
   1.1578347
   1.1594497
   1.1558617
   1.1643754
   1.1610106
   1.1414921
   1.1566999
   1.1598724
   1.1553724
   1.1548139
   1.1637649
   1.1773999
   1.1529196
   1.1666024
   1.1578906
   1.1620106
   1.1758821
   1.1634601
   1.1594567
   1.1567748
   1.1670785
   1.1674057
    1.158855
   1.1713597
   1.1543508
   1.1669692
   1.1685716
   1.1609987
   1.1542999
   1.1653923
   1.1526777
   1.1613938
   1.1593015
   1.1580906
   1.1550783
   1.1465881
   1.1691254
   1.1635758
   1.1606675
   1.1646471
   1.1676658
   1.1509052
   1.1539308
   1.1383181
   1.1697791
   1.1597343
   1.1663072
   1.1557388
   1.1607527
   1.1527589
   1.1564609
   1.1736603
   1.1577439
   1.1668019
   1.1669396
   1.1525407
    1.148593
   1.1582471
    1.157935
   1.1522926
   1.1590811
   1.1600972
   1.1646681
   1.1644909
   1.1589725
   1.1566813
   1.1535317
   1.1540997
   1.1575168
   1.1668152
   1.1503953
   1.1683636
   1.1703626
    1.157439
   1.1715912
   1.1478205
    1.160275
    1.162924
   1.1548421
Loop time of 5229.35 on 128 procs for 5000000 steps with 3152 atoms

reset_timestep 0

#################### 3) Initializing the NVT ensemble ####################
# scaling the size of the system to the average volume
variable sidesize equal (f_VoluAve^(1.0/3.0))    # get the volume
variable xlow equal xlo
variable ylow equal ylo
variable zlow equal zlo
variable xhig equal (xlo+32.374744564139)
variable yhig equal (ylo+32.374744564139)
variable zhig equal (zlo+32.374744564139)
change_box all x final 0.641938868764115 33.0166834329031 y final 0.641938868764115 33.0166834329031 z final 0.641938868764115 33.0166834329031
  orthogonal box = (0.641939 0.641939 0.641939) to (33.0167 33.0542 33.0542)
  orthogonal box = (0.641939 0.641939 0.641939) to (33.0167 33.0167 33.0542)
  orthogonal box = (0.641939 0.641939 0.641939) to (33.0167 33.0167 33.0167)
unfix DensAve
unfix VoluAve

# changing the ensemble to NVT
unfix integrate
fix integrate all nvt temp 298 298 100.0

# Initializing the whole system with very small timesteps in the NVT ensemble
timestep 0.001
run 10000
PPPM initialization ...
  extracting TIP4P info from pair style
  G vector (1/distance) = 0.309653
  grid = 30 30 30
  stencil order = 5
  estimated absolute RMS force accuracy = 0.0038229
  estimated relative force accuracy = 1.15126e-05
  3d grid and FFT values/proc = 2475 256
Density
   1.1588652
   1.1588652
Loop time of 7.6591 on 128 procs for 10000 steps with 3152 atoms

timestep 0.01
run 10000
PPPM initialization ...
  extracting TIP4P info from pair style
  G vector (1/distance) = 0.309653
  grid = 30 30 30
  stencil order = 5
  estimated absolute RMS force accuracy = 0.0038229
  estimated relative force accuracy = 1.15126e-05
  3d grid and FFT values/proc = 2475 256
Density
   1.1588652
   1.1588652
Loop time of 8.09964 on 128 procs for 10000 steps with 3152 atoms

timestep 0.1
run 10000
PPPM initialization ...
  extracting TIP4P info from pair style
  G vector (1/distance) = 0.309653
  grid = 30 30 30
  stencil order = 5
  estimated absolute RMS force accuracy = 0.0038229
  estimated relative force accuracy = 1.15126e-05
  3d grid and FFT values/proc = 2475 256
Density
   1.1588652
   1.1588652
Loop time of 7.45753 on 128 procs for 10000 steps with 3152 atoms

timestep 0.2
run 10000
PPPM initialization ...
  extracting TIP4P info from pair style
  G vector (1/distance) = 0.309653
  grid = 30 30 30
  stencil order = 5
  estimated absolute RMS force accuracy = 0.0038229
  estimated relative force accuracy = 1.15126e-05
  3d grid and FFT values/proc = 2475 256
Density
   1.1588652
   1.1588652
Loop time of 7.68568 on 128 procs for 10000 steps with 3152 atoms

timestep 0.5
run 10000
PPPM initialization ...
  extracting TIP4P info from pair style
  G vector (1/distance) = 0.309653
  grid = 30 30 30
  stencil order = 5
  estimated absolute RMS force accuracy = 0.0038229
  estimated relative force accuracy = 1.15126e-05
  3d grid and FFT values/proc = 2475 256
Density
   1.1588652
   1.1588652
Loop time of 7.73632 on 128 procs for 10000 steps with 3152 atoms

reset_timestep 0

# continuing the initialization with the final value of timestep
timestep 2
run 100000
PPPM initialization ...
  extracting TIP4P info from pair style
  G vector (1/distance) = 0.309653
  grid = 30 30 30
  stencil order = 5
  estimated absolute RMS force accuracy = 0.0038229
  estimated relative force accuracy = 1.15126e-05
  3d grid and FFT values/proc = 2475 256
Density
   1.1588652
   1.1588652
   1.1588652
   1.1588652
   1.1588652
   1.1588652
   1.1588652
   1.1588652
   1.1588652
   1.1588652
   1.1588652
Loop time of 82.6937 on 128 procs for 100000 steps with 3152 atoms

reset_timestep 0

#################### 4) Obtaining average total energy in NVT #####################
thermo_style custom temp pe ke etotal
thermo_modify flush yes

variable T1 equal temp
variable TE1 equal etotal
variable KE1 equal ke
variable PE1 equal pe
fix Tave1 all ave/time 100000 1 100000 v_T1
fix TEave1 all ave/time 1 100000 100000 v_TE1
fix KEave1 all ave/time 100000 1 100000 v_KE1
fix PEave1 all ave/time 100000 1 100000 v_PE1

dump trjectory all xyz 10000 movie.xyz
dump_modify trjectory element O H K Cl

run 100000
PPPM initialization ...
  extracting TIP4P info from pair style
  G vector (1/distance) = 0.309653
  grid = 30 30 30
  stencil order = 5
  estimated absolute RMS force accuracy = 0.0038229
  estimated relative force accuracy = 1.15126e-05
  3d grid and FFT values/proc = 2475 256
Temp PotEng KinEng TotEng
Loop time of 97.3318 on 128 procs for 100000 steps with 3152 atoms

reset_timestep 0

undump trjectory

#################### 3) Simulating transport properties in NVT ensmeble ######################

unfix Tave1
unfix TEave1
unfix KEave1
unfix PEave1
variable T1 delete
variable TE1 delete
variable KE1 delete
variable PE1 delete

# computing average total energy, pontential energy, temperature, and pressure over time
variable TotEn equal etotal
fix TEAve all ave/time 10 1000 10000 v_TotEn file TotalE.dat

variable PotEn equal pe
fix PEAve all ave/time 10 1000 10000 v_PotEn file PotenE.dat

compute T all temp
fix TempAve all ave/time 10 1000 10000 c_T file temperature.dat

compute P all pressure T
fix PressAve all ave/time 10 1000 10000 c_P file pressure.dat

# computing self-diffusion and Onsager coefficients using the OCTP plugin
compute positions all position
fix f3 all ordern diffusivity 1000 100000 c_positions nb 10 nbe 20 file diffself.dat diffonsag.dat

# computing shear and bulk viscosities  using the OCTP plugin
fix f1 all ordern viscosity 5 100000 c_P nb 10 nbe 20 file viscosity.dat

# computing the RDF for all group pairs
compute rdfs all rdf/ext Nbin 2000 Nwrite 1000 file rdf.dat
fix f4 all ave/time 1 1 100 c_rdfs

# Thermo style for outputing system properties to the log file
thermo_style custom step temp f_TempAve press f_PressAve pe ke etotal
thermo_modify flush yes

run 100000000
PPPM initialization ...
  extracting TIP4P info from pair style
  G vector (1/distance) = 0.309653
  grid = 30 30 30
  stencil order = 5
  estimated absolute RMS force accuracy = 0.0038229
  estimated relative force accuracy = 1.15126e-05
  3d grid and FFT values/proc = 2475 256
Step Temp f_TempAve Press f_PressAve PotEng KinEng TotEng
0    293.82787            0   -448.75746            0   -18991.357    1883.9427   -17107.415
Averages over the last 5001 of 10001 rows, steps 50000000 to 100000000:
Temp f_TempAve Press f_PressAve PotEng KinEng TotEng
298.102 297.994 -1.28324 -4.61131 -19083.8 1911.35 -17172.5
Loop time of 91746.8 on 128 procs for 100000000 steps with 3152 atoms

quit
